data_check
_audit_creation_date              2023-05-29
_audit_creation_method            'cif2lammps'
_symmetry_space_group_name_H-M    'P1'
_symmetry_Int_Tables_number       1
_symmetry_cell_setting            triclinic
loop_
_symmetry_equiv_pos_as_xyz
  x,y,z
_cell_length_a                    39.87968858000001
_cell_length_b                    25.576616020000003
_cell_length_c                    25.57662568
_cell_angle_alpha                 89.97005461
_cell_angle_beta                  90.80598709
_cell_angle_gamma                 88.29381776
loop_
_atom_site_label
_atom_site_type_symbol
_atom_site_fract_x
_atom_site_fract_y
_atom_site_fract_z
_atom_site_charge
Zn1       Zn        0.381462        0.251897        0.379238        0.000000
Zn2       Zn        0.325262        0.342179        0.377843        0.000000
Zn3       Zn        0.325365        0.254870        0.465839        0.000000
Zn4       Zn        0.381624        0.339837        0.466499        0.000000
H5         H        0.180356        0.443752        0.394217        0.000000
H6         H        0.200835        0.392998        0.356504        0.000000
H7         H        0.166481        0.428363        0.328179        0.000000
H8         H        0.093173        0.436240        0.328851        0.000000
H9         H        0.083758        0.454175        0.395909        0.000000
H10        H        0.122799        0.469260        0.370256        0.000000
H11        H        0.048662        0.390250        0.378939        0.000000
H12        H        0.492804        0.364480        0.390879        0.000000
H13        H        0.479332        0.162335        0.466215        0.000000
H14        H        0.455528        0.211735        0.000913        0.000000
H15        H        0.446448        0.197280        0.432689        0.000000
H16        H        0.152125        0.254526        0.445778        0.000000
H17        H        0.120207        0.199711        0.475813        0.000000
H18        H        0.079801        0.140003        0.002059        0.000000
H19        H        0.350133        0.002080        0.213734        0.000000
H20        H        0.307075        0.453271        0.354222        0.000000
H21        H        0.320353        0.097761        0.356322        0.000000
H22        H        0.414171        0.111338        0.496405        0.000000
H23        H        0.389017        0.077584        0.043414        0.000000
H24        H        0.373933        0.137809        0.017866        0.000000
H25        H        0.382789        0.478654        0.032968        0.000000
H26        H        0.419387        0.008339        0.005658        0.000000
H27        H        0.405231        0.449340        0.478905        0.000000
H28        H        0.266652        0.017603        0.379894        0.000000
H29        H        0.262231        0.001244        0.316932        0.000000
H30        H        0.406979        0.485874        0.128054        0.000000
H31        H        0.329602        0.389638        0.075671        0.000000
H32        H        0.341146        0.378719        0.221038        0.000000
H33        H        0.388748        0.189632        0.240187        0.000000
H34        H        0.353053        0.164748        0.204520        0.000000
H35        H        0.346220        0.197854        0.263864        0.000000
H36        H        0.350204        0.178325        0.105226        0.000000
H37        H        0.390997        0.177810        0.137490        0.000000
H38        H        0.385337        0.211361        0.077678        0.000000
H39        H        0.285763        0.394222        0.137176        0.000000
H40        H        0.298803        0.453504        0.120835        0.000000
C41        C        0.199097        0.313540        0.415612        0.000000
C42        C        0.163620        0.326211        0.410495        0.000000
C43        C        0.151691        0.373605        0.387869        0.000000
C44        C        0.176216        0.411776        0.365732        0.000000
C45        C        0.116662        0.385562        0.387372        0.000000
C46        C        0.103498        0.439034        0.369252        0.000000
C47        C        0.093900        0.346852        0.403486        0.000000
C48        C        0.058932        0.355145        0.397428        0.000000
C49        C        0.036385        0.318025        0.413876        0.000000
C50        C        0.001775        0.327714        0.407883        0.000000
C51        C        0.490470        0.243095        0.446477        0.000000
C52        C        0.466636        0.201387        0.462602        0.000000
C53        C        0.025336        0.233924        0.453278        0.000000
C54        C        0.048368        0.271167        0.436894        0.000000
C55        C        0.083269        0.261009        0.443252        0.000000
C56        C        0.106282        0.298799        0.425616        0.000000
C57        C        0.141264        0.289986        0.429249        0.000000
C58        C        0.094252        0.210491        0.468510        0.000000
C59        C        0.071661        0.176456        0.483736        0.000000
C60        C        0.228663        0.302906        0.419944        0.000000
C61        C        0.478534        0.291284        0.424641        0.000000
C62        C        0.338930        0.000120        0.250916        0.000000
C63        C        0.326177        0.497892        0.293286        0.000000
C64        C        0.310662        0.495139        0.345000        0.000000
C65        C        0.333246        0.020887        0.385390        0.000000
C66        C        0.334447        0.075607        0.385835        0.000000
C67        C        0.371353        0.073429        0.462371        0.000000
C68        C        0.388239        0.101576        0.007250        0.000000
C69        C        0.373382        0.017921        0.459150        0.000000
C70        C        0.396292        0.486838        0.496341        0.000000
C71        C        0.353363        0.102237        0.423171        0.000000
C72        C        0.353514        0.491621        0.421473        0.000000
C73        C        0.386675        0.460273        0.125161        0.000000
C74        C        0.363551        0.431090        0.121870        0.000000
C75        C        0.335374        0.395438        0.117825        0.000000
C76        C        0.345026        0.343960        0.144882        0.000000
C77        C        0.346000        0.342744        0.199679        0.000000
C78        C        0.358915        0.249209        0.199587        0.000000
C79        C        0.362150        0.197599        0.228639        0.000000
C80        C        0.361639        0.250705        0.144231        0.000000
C81        C        0.372455        0.201865        0.114493        0.000000
C82        C        0.353133        0.296493        0.227387        0.000000
C83        C        0.353731        0.297909        0.116790        0.000000
C84        C        0.353635        0.297686        0.058533        0.000000
C85        C        0.353481        0.433367        0.421771        0.000000
C86        C        0.353221        0.296703        0.285645        0.000000
C87        C        0.441152        0.293050        0.423958        0.000000
C88        C        0.353383        0.160492        0.422927        0.000000
C89        C        0.266046        0.301287        0.420727        0.000000
N90        N        0.277544        0.021386        0.343154        0.000000
N91        N        0.305662        0.419641        0.141869        0.000000
O92        O        0.037414        0.187299        0.476392        0.000000
O93        O        0.353428        0.297196        0.422355        0.000000
O94        O        0.373896        0.263609        0.305707        0.000000
O95        O        0.278211        0.332821        0.388656        0.000000
O96        O        0.332782        0.181132        0.454658        0.000000
O97        O        0.332605        0.329938        0.304682        0.000000
O98        O        0.373996        0.178948        0.391033        0.000000
O99        O        0.278287        0.268675        0.453306        0.000000
O100       O        0.332939        0.266405        0.039272        0.000000
O101       O        0.428667        0.325948        0.455784        0.000000
O102       O        0.374272        0.328830        0.039758        0.000000
O103       O        0.428548        0.261338        0.391673        0.000000
O104       O        0.332763        0.415211        0.389296        0.000000
O105       O        0.374172        0.413490        0.454432        0.000000
Zn106     Zn        0.381462        0.251897        0.879238        0.000000
Zn107     Zn        0.325262        0.342179        0.877843        0.000000
Zn108     Zn        0.325365        0.254870        0.965839        0.000000
Zn109     Zn        0.381624        0.339837        0.966499        0.000000
H110       H        0.180356        0.443752        0.894217        0.000000
H111       H        0.200835        0.392998        0.856504        0.000000
H112       H        0.166481        0.428363        0.828179        0.000000
H113       H        0.093173        0.436240        0.828851        0.000000
H114       H        0.083758        0.454175        0.895909        0.000000
H115       H        0.122799        0.469260        0.870256        0.000000
H116       H        0.048662        0.390250        0.878939        0.000000
H117       H        0.492804        0.364480        0.890879        0.000000
H118       H        0.479332        0.162335        0.966215        0.000000
H119       H        0.455528        0.211735        0.500913        0.000000
H120       H        0.446448        0.197280        0.932689        0.000000
H121       H        0.152125        0.254526        0.945778        0.000000
H122       H        0.120207        0.199711        0.975813        0.000000
H123       H        0.079801        0.140003        0.502059        0.000000
H124       H        0.350133        0.002080        0.713734        0.000000
H125       H        0.307075        0.453271        0.854222        0.000000
H126       H        0.320353        0.097761        0.856322        0.000000
H127       H        0.414171        0.111338        0.996405        0.000000
H128       H        0.389017        0.077584        0.543414        0.000000
H129       H        0.373933        0.137809        0.517866        0.000000
H130       H        0.382789        0.478654        0.532968        0.000000
H131       H        0.419387        0.008339        0.505658        0.000000
H132       H        0.405231        0.449340        0.978905        0.000000
H133       H        0.266652        0.017603        0.879894        0.000000
H134       H        0.262231        0.001244        0.816932        0.000000
H135       H        0.406979        0.485874        0.628054        0.000000
H136       H        0.329602        0.389638        0.575672        0.000000
H137       H        0.341146        0.378719        0.721038        0.000000
H138       H        0.388748        0.189632        0.740187        0.000000
H139       H        0.353053        0.164748        0.704520        0.000000
H140       H        0.346220        0.197854        0.763864        0.000000
H141       H        0.350204        0.178325        0.605226        0.000000
H142       H        0.390997        0.177810        0.637490        0.000000
H143       H        0.385337        0.211361        0.577678        0.000000
H144       H        0.285763        0.394222        0.637176        0.000000
H145       H        0.298803        0.453504        0.620835        0.000000
C146       C        0.199097        0.313540        0.915612        0.000000
C147       C        0.163620        0.326211        0.910495        0.000000
C148       C        0.151691        0.373605        0.887869        0.000000
C149       C        0.176216        0.411776        0.865732        0.000000
C150       C        0.116662        0.385562        0.887372        0.000000
C151       C        0.103498        0.439034        0.869252        0.000000
C152       C        0.093900        0.346852        0.903486        0.000000
C153       C        0.058932        0.355145        0.897428        0.000000
C154       C        0.036385        0.318025        0.913876        0.000000
C155       C        0.001775        0.327714        0.907883        0.000000
C156       C        0.490470        0.243095        0.946477        0.000000
C157       C        0.466636        0.201387        0.962602        0.000000
C158       C        0.025336        0.233924        0.953278        0.000000
C159       C        0.048368        0.271167        0.936894        0.000000
C160       C        0.083269        0.261009        0.943252        0.000000
C161       C        0.106282        0.298799        0.925616        0.000000
C162       C        0.141264        0.289986        0.929249        0.000000
C163       C        0.094252        0.210491        0.968510        0.000000
C164       C        0.071661        0.176456        0.983736        0.000000
C165       C        0.228663        0.302906        0.919944        0.000000
C166       C        0.478534        0.291284        0.924641        0.000000
C167       C        0.338930        0.000120        0.750916        0.000000
C168       C        0.326177        0.497892        0.793286        0.000000
C169       C        0.310662        0.495139        0.845000        0.000000
C170       C        0.333246        0.020887        0.885390        0.000000
C171       C        0.334447        0.075607        0.885835        0.000000
C172       C        0.371353        0.073429        0.962371        0.000000
C173       C        0.388239        0.101576        0.507250        0.000000
C174       C        0.373382        0.017921        0.959150        0.000000
C175       C        0.396292        0.486838        0.996341        0.000000
C176       C        0.353363        0.102237        0.923171        0.000000
C177       C        0.353514        0.491621        0.921473        0.000000
C178       C        0.386675        0.460273        0.625161        0.000000
C179       C        0.363551        0.431090        0.621870        0.000000
C180       C        0.335374        0.395438        0.617825        0.000000
C181       C        0.345026        0.343960        0.644882        0.000000
C182       C        0.346000        0.342744        0.699679        0.000000
C183       C        0.358915        0.249209        0.699587        0.000000
C184       C        0.362150        0.197599        0.728639        0.000000
C185       C        0.361639        0.250705        0.644231        0.000000
C186       C        0.372455        0.201865        0.614493        0.000000
C187       C        0.353133        0.296493        0.727387        0.000000
C188       C        0.353731        0.297909        0.616790        0.000000
C189       C        0.353635        0.297686        0.558533        0.000000
C190       C        0.353481        0.433367        0.921771        0.000000
C191       C        0.353221        0.296703        0.785645        0.000000
C192       C        0.441152        0.293050        0.923958        0.000000
C193       C        0.353383        0.160492        0.922927        0.000000
C194       C        0.266046        0.301287        0.920727        0.000000
N195       N        0.277544        0.021386        0.843154        0.000000
N196       N        0.305662        0.419641        0.641869        0.000000
O197       O        0.037414        0.187299        0.976392        0.000000
O198       O        0.353428        0.297196        0.922355        0.000000
O199       O        0.373896        0.263609        0.805707        0.000000
O200       O        0.278211        0.332821        0.888656        0.000000
O201       O        0.332782        0.181132        0.954658        0.000000
O202       O        0.332605        0.329938        0.804682        0.000000
O203       O        0.373996        0.178948        0.891033        0.000000
O204       O        0.278287        0.268675        0.953306        0.000000
O205       O        0.332939        0.266405        0.539272        0.000000
O206       O        0.428667        0.325948        0.955784        0.000000
O207       O        0.374272        0.328830        0.539758        0.000000
O208       O        0.428548        0.261338        0.891673        0.000000
O209       O        0.332763        0.415211        0.889296        0.000000
O210       O        0.374172        0.413490        0.954432        0.000000
Zn211     Zn        0.381462        0.751897        0.379238        0.000000
Zn212     Zn        0.325262        0.842179        0.377843        0.000000
Zn213     Zn        0.325365        0.754870        0.465839        0.000000
Zn214     Zn        0.381624        0.839837        0.466499        0.000000
H215       H        0.180356        0.943752        0.394217        0.000000
H216       H        0.200835        0.892998        0.356504        0.000000
H217       H        0.166481        0.928363        0.328179        0.000000
H218       H        0.093173        0.936240        0.328851        0.000000
H219       H        0.083758        0.954175        0.395909        0.000000
H220       H        0.122799        0.969260        0.370256        0.000000
H221       H        0.048662        0.890250        0.378939        0.000000
H222       H        0.492804        0.864480        0.390879        0.000000
H223       H        0.479332        0.662335        0.466215        0.000000
H224       H        0.455528        0.711735        0.000913        0.000000
H225       H        0.446448        0.697280        0.432689        0.000000
H226       H        0.152125        0.754526        0.445778        0.000000
H227       H        0.120207        0.699711        0.475813        0.000000
H228       H        0.079801        0.640003        0.002059        0.000000
H229       H        0.350133        0.502080        0.213734        0.000000
H230       H        0.307075        0.953271        0.354222        0.000000
H231       H        0.320353        0.597761        0.356322        0.000000
H232       H        0.414171        0.611338        0.496405        0.000000
H233       H        0.389017        0.577584        0.043414        0.000000
H234       H        0.373933        0.637809        0.017866        0.000000
H235       H        0.382789        0.978654        0.032968        0.000000
H236       H        0.419387        0.508339        0.005658        0.000000
H237       H        0.405231        0.949340        0.478905        0.000000
H238       H        0.266652        0.517603        0.379894        0.000000
H239       H        0.262231        0.501244        0.316932        0.000000
H240       H        0.406979        0.985874        0.128054        0.000000
H241       H        0.329602        0.889638        0.075671        0.000000
H242       H        0.341146        0.878719        0.221038        0.000000
H243       H        0.388748        0.689632        0.240187        0.000000
H244       H        0.353053        0.664748        0.204520        0.000000
H245       H        0.346220        0.697854        0.263864        0.000000
H246       H        0.350204        0.678325        0.105226        0.000000
H247       H        0.390997        0.677810        0.137490        0.000000
H248       H        0.385337        0.711361        0.077678        0.000000
H249       H        0.285763        0.894222        0.137176        0.000000
H250       H        0.298803        0.953504        0.120835        0.000000
C251       C        0.199097        0.813540        0.415612        0.000000
C252       C        0.163620        0.826211        0.410495        0.000000
C253       C        0.151691        0.873605        0.387869        0.000000
C254       C        0.176216        0.911776        0.365732        0.000000
C255       C        0.116662        0.885562        0.387372        0.000000
C256       C        0.103498        0.939034        0.369252        0.000000
C257       C        0.093900        0.846852        0.403486        0.000000
C258       C        0.058932        0.855145        0.397428        0.000000
C259       C        0.036385        0.818025        0.413876        0.000000
C260       C        0.001775        0.827714        0.407883        0.000000
C261       C        0.490470        0.743095        0.446477        0.000000
C262       C        0.466636        0.701387        0.462602        0.000000
C263       C        0.025336        0.733924        0.453278        0.000000
C264       C        0.048368        0.771167        0.436894        0.000000
C265       C        0.083269        0.761009        0.443252        0.000000
C266       C        0.106282        0.798799        0.425616        0.000000
C267       C        0.141264        0.789986        0.429249        0.000000
C268       C        0.094252        0.710491        0.468510        0.000000
C269       C        0.071661        0.676456        0.483736        0.000000
C270       C        0.228663        0.802906        0.419944        0.000000
C271       C        0.478534        0.791284        0.424641        0.000000
C272       C        0.338930        0.500120        0.250916        0.000000
C273       C        0.326177        0.997892        0.293286        0.000000
C274       C        0.310662        0.995139        0.345000        0.000000
C275       C        0.333246        0.520887        0.385390        0.000000
C276       C        0.334447        0.575607        0.385835        0.000000
C277       C        0.371353        0.573429        0.462371        0.000000
C278       C        0.388239        0.601576        0.007250        0.000000
C279       C        0.373382        0.517921        0.459150        0.000000
C280       C        0.396292        0.986838        0.496341        0.000000
C281       C        0.353363        0.602237        0.423171        0.000000
C282       C        0.353514        0.991621        0.421473        0.000000
C283       C        0.386675        0.960273        0.125161        0.000000
C284       C        0.363551        0.931090        0.121870        0.000000
C285       C        0.335374        0.895438        0.117825        0.000000
C286       C        0.345026        0.843960        0.144882        0.000000
C287       C        0.346000        0.842744        0.199679        0.000000
C288       C        0.358915        0.749209        0.199587        0.000000
C289       C        0.362150        0.697599        0.228639        0.000000
C290       C        0.361639        0.750705        0.144231        0.000000
C291       C        0.372455        0.701865        0.114493        0.000000
C292       C        0.353133        0.796493        0.227387        0.000000
C293       C        0.353731        0.797909        0.116790        0.000000
C294       C        0.353635        0.797686        0.058533        0.000000
C295       C        0.353481        0.933367        0.421771        0.000000
C296       C        0.353221        0.796703        0.285645        0.000000
C297       C        0.441152        0.793050        0.423958        0.000000
C298       C        0.353383        0.660492        0.422927        0.000000
C299       C        0.266046        0.801287        0.420727        0.000000
N300       N        0.277544        0.521386        0.343154        0.000000
N301       N        0.305662        0.919641        0.141869        0.000000
O302       O        0.037414        0.687299        0.476392        0.000000
O303       O        0.353428        0.797196        0.422355        0.000000
O304       O        0.373896        0.763609        0.305707        0.000000
O305       O        0.278211        0.832821        0.388656        0.000000
O306       O        0.332782        0.681132        0.454658        0.000000
O307       O        0.332605        0.829938        0.304682        0.000000
O308       O        0.373996        0.678948        0.391033        0.000000
O309       O        0.278287        0.768675        0.453306        0.000000
O310       O        0.332939        0.766405        0.039272        0.000000
O311       O        0.428667        0.825948        0.455784        0.000000
O312       O        0.374272        0.828830        0.039758        0.000000
O313       O        0.428548        0.761338        0.391673        0.000000
O314       O        0.332763        0.915211        0.389296        0.000000
O315       O        0.374172        0.913490        0.454432        0.000000
Zn316     Zn        0.381462        0.751897        0.879238        0.000000
Zn317     Zn        0.325262        0.842179        0.877843        0.000000
Zn318     Zn        0.325365        0.754870        0.965839        0.000000
Zn319     Zn        0.381624        0.839837        0.966499        0.000000
H320       H        0.180356        0.943752        0.894217        0.000000
H321       H        0.200835        0.892998        0.856504        0.000000
H322       H        0.166481        0.928363        0.828179        0.000000
H323       H        0.093173        0.936240        0.828851        0.000000
H324       H        0.083758        0.954175        0.895909        0.000000
H325       H        0.122799        0.969260        0.870256        0.000000
H326       H        0.048662        0.890250        0.878939        0.000000
H327       H        0.492804        0.864480        0.890879        0.000000
H328       H        0.479332        0.662335        0.966215        0.000000
H329       H        0.455528        0.711735        0.500913        0.000000
H330       H        0.446448        0.697280        0.932689        0.000000
H331       H        0.152125        0.754526        0.945778        0.000000
H332       H        0.120207        0.699711        0.975813        0.000000
H333       H        0.079801        0.640003        0.502059        0.000000
H334       H        0.350133        0.502080        0.713734        0.000000
H335       H        0.307075        0.953271        0.854222        0.000000
H336       H        0.320353        0.597761        0.856322        0.000000
H337       H        0.414171        0.611338        0.996405        0.000000
H338       H        0.389017        0.577584        0.543414        0.000000
H339       H        0.373933        0.637809        0.517866        0.000000
H340       H        0.382789        0.978654        0.532968        0.000000
H341       H        0.419387        0.508339        0.505658        0.000000
H342       H        0.405231        0.949340        0.978905        0.000000
H343       H        0.266652        0.517603        0.879894        0.000000
H344       H        0.262231        0.501244        0.816932        0.000000
H345       H        0.406979        0.985874        0.628054        0.000000
H346       H        0.329602        0.889638        0.575672        0.000000
H347       H        0.341146        0.878719        0.721038        0.000000
H348       H        0.388748        0.689632        0.740187        0.000000
H349       H        0.353053        0.664748        0.704520        0.000000
H350       H        0.346220        0.697854        0.763864        0.000000
H351       H        0.350204        0.678325        0.605226        0.000000
H352       H        0.390997        0.677810        0.637490        0.000000
H353       H        0.385337        0.711361        0.577678        0.000000
H354       H        0.285763        0.894222        0.637176        0.000000
H355       H        0.298803        0.953504        0.620835        0.000000
C356       C        0.199097        0.813540        0.915612        0.000000
C357       C        0.163620        0.826211        0.910495        0.000000
C358       C        0.151691        0.873605        0.887869        0.000000
C359       C        0.176216        0.911776        0.865732        0.000000
C360       C        0.116662        0.885562        0.887372        0.000000
C361       C        0.103498        0.939034        0.869252        0.000000
C362       C        0.093900        0.846852        0.903486        0.000000
C363       C        0.058932        0.855145        0.897428        0.000000
C364       C        0.036385        0.818025        0.913876        0.000000
C365       C        0.001775        0.827714        0.907883        0.000000
C366       C        0.490470        0.743095        0.946477        0.000000
C367       C        0.466636        0.701387        0.962602        0.000000
C368       C        0.025336        0.733924        0.953278        0.000000
C369       C        0.048368        0.771167        0.936894        0.000000
C370       C        0.083269        0.761009        0.943252        0.000000
C371       C        0.106282        0.798799        0.925616        0.000000
C372       C        0.141264        0.789986        0.929249        0.000000
C373       C        0.094252        0.710491        0.968510        0.000000
C374       C        0.071661        0.676456        0.983736        0.000000
C375       C        0.228663        0.802906        0.919944        0.000000
C376       C        0.478534        0.791284        0.924641        0.000000
C377       C        0.338930        0.500120        0.750916        0.000000
C378       C        0.326177        0.997892        0.793286        0.000000
C379       C        0.310662        0.995139        0.845000        0.000000
C380       C        0.333246        0.520887        0.885390        0.000000
C381       C        0.334447        0.575607        0.885835        0.000000
C382       C        0.371353        0.573429        0.962371        0.000000
C383       C        0.388239        0.601576        0.507250        0.000000
C384       C        0.373382        0.517921        0.959150        0.000000
C385       C        0.396292        0.986838        0.996341        0.000000
C386       C        0.353363        0.602237        0.923171        0.000000
C387       C        0.353514        0.991621        0.921473        0.000000
C388       C        0.386675        0.960273        0.625161        0.000000
C389       C        0.363551        0.931090        0.621870        0.000000
C390       C        0.335374        0.895438        0.617825        0.000000
C391       C        0.345026        0.843960        0.644882        0.000000
C392       C        0.346000        0.842744        0.699679        0.000000
C393       C        0.358915        0.749209        0.699587        0.000000
C394       C        0.362150        0.697599        0.728639        0.000000
C395       C        0.361639        0.750705        0.644231        0.000000
C396       C        0.372455        0.701865        0.614493        0.000000
C397       C        0.353133        0.796493        0.727387        0.000000
C398       C        0.353731        0.797909        0.616790        0.000000
C399       C        0.353635        0.797686        0.558533        0.000000
C400       C        0.353481        0.933367        0.921771        0.000000
C401       C        0.353221        0.796703        0.785645        0.000000
C402       C        0.441152        0.793050        0.923958        0.000000
C403       C        0.353383        0.660492        0.922927        0.000000
C404       C        0.266046        0.801287        0.920727        0.000000
N405       N        0.277544        0.521386        0.843154        0.000000
N406       N        0.305662        0.919641        0.641869        0.000000
O407       O        0.037414        0.687299        0.976392        0.000000
O408       O        0.353428        0.797196        0.922355        0.000000
O409       O        0.373896        0.763609        0.805707        0.000000
O410       O        0.278211        0.832821        0.888656        0.000000
O411       O        0.332782        0.681132        0.954658        0.000000
O412       O        0.332605        0.829938        0.804682        0.000000
O413       O        0.373996        0.678948        0.891033        0.000000
O414       O        0.278287        0.768675        0.953306        0.000000
O415       O        0.332939        0.766405        0.539272        0.000000
O416       O        0.428667        0.825948        0.955784        0.000000
O417       O        0.374272        0.828830        0.539758        0.000000
O418       O        0.428548        0.761338        0.891673        0.000000
O419       O        0.332763        0.915211        0.889296        0.000000
O420       O        0.374172        0.913490        0.954432        0.000000
Zn421     Zn        0.881462        0.251897        0.379238        0.000000
Zn422     Zn        0.825262        0.342179        0.377843        0.000000
Zn423     Zn        0.825365        0.254870        0.465839        0.000000
Zn424     Zn        0.881624        0.339837        0.466499        0.000000
H425       H        0.680356        0.443752        0.394217        0.000000
H426       H        0.700835        0.392998        0.356504        0.000000
H427       H        0.666481        0.428363        0.328179        0.000000
H428       H        0.593173        0.436240        0.328851        0.000000
H429       H        0.583758        0.454175        0.395909        0.000000
H430       H        0.622799        0.469260        0.370256        0.000000
H431       H        0.548662        0.390250        0.378939        0.000000
H432       H        0.992804        0.364480        0.390879        0.000000
H433       H        0.979332        0.162335        0.466215        0.000000
H434       H        0.955528        0.211735        0.000913        0.000000
H435       H        0.946448        0.197280        0.432689        0.000000
H436       H        0.652125        0.254526        0.445778        0.000000
H437       H        0.620207        0.199711        0.475813        0.000000
H438       H        0.579801        0.140003        0.002059        0.000000
H439       H        0.850133        0.002080        0.213734        0.000000
H440       H        0.807075        0.453271        0.354222        0.000000
H441       H        0.820353        0.097761        0.356322        0.000000
H442       H        0.914171        0.111338        0.496405        0.000000
H443       H        0.889017        0.077584        0.043414        0.000000
H444       H        0.873933        0.137809        0.017866        0.000000
H445       H        0.882789        0.478654        0.032968        0.000000
H446       H        0.919387        0.008339        0.005658        0.000000
H447       H        0.905231        0.449340        0.478905        0.000000
H448       H        0.766652        0.017603        0.379894        0.000000
H449       H        0.762231        0.001244        0.316932        0.000000
H450       H        0.906979        0.485874        0.128054        0.000000
H451       H        0.829602        0.389638        0.075671        0.000000
H452       H        0.841146        0.378719        0.221038        0.000000
H453       H        0.888748        0.189632        0.240187        0.000000
H454       H        0.853053        0.164748        0.204520        0.000000
H455       H        0.846220        0.197854        0.263864        0.000000
H456       H        0.850204        0.178325        0.105226        0.000000
H457       H        0.890997        0.177810        0.137490        0.000000
H458       H        0.885337        0.211361        0.077678        0.000000
H459       H        0.785763        0.394222        0.137176        0.000000
H460       H        0.798803        0.453504        0.120835        0.000000
C461       C        0.699097        0.313540        0.415612        0.000000
C462       C        0.663620        0.326211        0.410495        0.000000
C463       C        0.651691        0.373605        0.387869        0.000000
C464       C        0.676216        0.411776        0.365732        0.000000
C465       C        0.616662        0.385562        0.387372        0.000000
C466       C        0.603498        0.439034        0.369252        0.000000
C467       C        0.593900        0.346852        0.403486        0.000000
C468       C        0.558932        0.355145        0.397428        0.000000
C469       C        0.536385        0.318025        0.413876        0.000000
C470       C        0.501775        0.327714        0.407883        0.000000
C471       C        0.990470        0.243095        0.446477        0.000000
C472       C        0.966636        0.201387        0.462602        0.000000
C473       C        0.525336        0.233924        0.453278        0.000000
C474       C        0.548368        0.271167        0.436894        0.000000
C475       C        0.583269        0.261009        0.443252        0.000000
C476       C        0.606282        0.298799        0.425616        0.000000
C477       C        0.641264        0.289986        0.429249        0.000000
C478       C        0.594252        0.210491        0.468510        0.000000
C479       C        0.571661        0.176456        0.483736        0.000000
C480       C        0.728663        0.302906        0.419944        0.000000
C481       C        0.978534        0.291284        0.424641        0.000000
C482       C        0.838930        0.000120        0.250916        0.000000
C483       C        0.826177        0.497892        0.293286        0.000000
C484       C        0.810662        0.495139        0.345000        0.000000
C485       C        0.833246        0.020887        0.385390        0.000000
C486       C        0.834447        0.075607        0.385835        0.000000
C487       C        0.871353        0.073429        0.462371        0.000000
C488       C        0.888239        0.101576        0.007250        0.000000
C489       C        0.873382        0.017921        0.459150        0.000000
C490       C        0.896292        0.486838        0.496341        0.000000
C491       C        0.853363        0.102237        0.423171        0.000000
C492       C        0.853514        0.491621        0.421473        0.000000
C493       C        0.886675        0.460273        0.125161        0.000000
C494       C        0.863551        0.431090        0.121870        0.000000
C495       C        0.835374        0.395438        0.117825        0.000000
C496       C        0.845026        0.343960        0.144882        0.000000
C497       C        0.846000        0.342744        0.199679        0.000000
C498       C        0.858915        0.249209        0.199587        0.000000
C499       C        0.862150        0.197599        0.228639        0.000000
C500       C        0.861639        0.250705        0.144231        0.000000
C501       C        0.872455        0.201865        0.114493        0.000000
C502       C        0.853133        0.296493        0.227387        0.000000
C503       C        0.853731        0.297909        0.116790        0.000000
C504       C        0.853635        0.297686        0.058533        0.000000
C505       C        0.853481        0.433367        0.421771        0.000000
C506       C        0.853221        0.296703        0.285645        0.000000
C507       C        0.941152        0.293050        0.423958        0.000000
C508       C        0.853383        0.160492        0.422927        0.000000
C509       C        0.766046        0.301287        0.420727        0.000000
N510       N        0.777544        0.021386        0.343154        0.000000
N511       N        0.805662        0.419641        0.141869        0.000000
O512       O        0.537414        0.187299        0.476392        0.000000
O513       O        0.853428        0.297196        0.422355        0.000000
O514       O        0.873896        0.263609        0.305707        0.000000
O515       O        0.778211        0.332821        0.388656        0.000000
O516       O        0.832782        0.181132        0.454658        0.000000
O517       O        0.832605        0.329938        0.304682        0.000000
O518       O        0.873996        0.178948        0.391033        0.000000
O519       O        0.778287        0.268675        0.453306        0.000000
O520       O        0.832939        0.266405        0.039272        0.000000
O521       O        0.928667        0.325948        0.455784        0.000000
O522       O        0.874272        0.328830        0.039758        0.000000
O523       O        0.928548        0.261338        0.391673        0.000000
O524       O        0.832763        0.415211        0.389296        0.000000
O525       O        0.874172        0.413490        0.454432        0.000000
Zn526     Zn        0.881462        0.251897        0.879238        0.000000
Zn527     Zn        0.825262        0.342179        0.877843        0.000000
Zn528     Zn        0.825365        0.254870        0.965839        0.000000
Zn529     Zn        0.881624        0.339837        0.966499        0.000000
H530       H        0.680356        0.443752        0.894217        0.000000
H531       H        0.700835        0.392998        0.856504        0.000000
H532       H        0.666481        0.428363        0.828179        0.000000
H533       H        0.593173        0.436240        0.828851        0.000000
H534       H        0.583758        0.454175        0.895909        0.000000
H535       H        0.622799        0.469260        0.870256        0.000000
H536       H        0.548662        0.390250        0.878939        0.000000
H537       H        0.992804        0.364480        0.890879        0.000000
H538       H        0.979332        0.162335        0.966215        0.000000
H539       H        0.955528        0.211735        0.500913        0.000000
H540       H        0.946448        0.197280        0.932689        0.000000
H541       H        0.652125        0.254526        0.945778        0.000000
H542       H        0.620207        0.199711        0.975813        0.000000
H543       H        0.579801        0.140003        0.502059        0.000000
H544       H        0.850133        0.002080        0.713734        0.000000
H545       H        0.807075        0.453271        0.854222        0.000000
H546       H        0.820353        0.097761        0.856322        0.000000
H547       H        0.914171        0.111338        0.996405        0.000000
H548       H        0.889017        0.077584        0.543414        0.000000
H549       H        0.873933        0.137809        0.517866        0.000000
H550       H        0.882789        0.478654        0.532968        0.000000
H551       H        0.919387        0.008339        0.505658        0.000000
H552       H        0.905231        0.449340        0.978905        0.000000
H553       H        0.766652        0.017603        0.879894        0.000000
H554       H        0.762231        0.001244        0.816932        0.000000
H555       H        0.906979        0.485874        0.628054        0.000000
H556       H        0.829602        0.389638        0.575672        0.000000
H557       H        0.841146        0.378719        0.721038        0.000000
H558       H        0.888748        0.189632        0.740187        0.000000
H559       H        0.853053        0.164748        0.704520        0.000000
H560       H        0.846220        0.197854        0.763864        0.000000
H561       H        0.850204        0.178325        0.605226        0.000000
H562       H        0.890997        0.177810        0.637490        0.000000
H563       H        0.885337        0.211361        0.577678        0.000000
H564       H        0.785763        0.394222        0.637176        0.000000
H565       H        0.798803        0.453504        0.620835        0.000000
C566       C        0.699097        0.313540        0.915612        0.000000
C567       C        0.663620        0.326211        0.910495        0.000000
C568       C        0.651691        0.373605        0.887869        0.000000
C569       C        0.676216        0.411776        0.865732        0.000000
C570       C        0.616662        0.385562        0.887372        0.000000
C571       C        0.603498        0.439034        0.869252        0.000000
C572       C        0.593900        0.346852        0.903486        0.000000
C573       C        0.558932        0.355145        0.897428        0.000000
C574       C        0.536385        0.318025        0.913876        0.000000
C575       C        0.501775        0.327714        0.907883        0.000000
C576       C        0.990470        0.243095        0.946477        0.000000
C577       C        0.966636        0.201387        0.962602        0.000000
C578       C        0.525336        0.233924        0.953278        0.000000
C579       C        0.548368        0.271167        0.936894        0.000000
C580       C        0.583269        0.261009        0.943252        0.000000
C581       C        0.606282        0.298799        0.925616        0.000000
C582       C        0.641264        0.289986        0.929249        0.000000
C583       C        0.594252        0.210491        0.968510        0.000000
C584       C        0.571661        0.176456        0.983736        0.000000
C585       C        0.728663        0.302906        0.919944        0.000000
C586       C        0.978534        0.291284        0.924641        0.000000
C587       C        0.838930        0.000120        0.750916        0.000000
C588       C        0.826177        0.497892        0.793286        0.000000
C589       C        0.810662        0.495139        0.845000        0.000000
C590       C        0.833246        0.020887        0.885390        0.000000
C591       C        0.834447        0.075607        0.885835        0.000000
C592       C        0.871353        0.073429        0.962371        0.000000
C593       C        0.888239        0.101576        0.507250        0.000000
C594       C        0.873382        0.017921        0.959150        0.000000
C595       C        0.896292        0.486838        0.996341        0.000000
C596       C        0.853363        0.102237        0.923171        0.000000
C597       C        0.853514        0.491621        0.921473        0.000000
C598       C        0.886675        0.460273        0.625161        0.000000
C599       C        0.863551        0.431090        0.621870        0.000000
C600       C        0.835374        0.395438        0.617825        0.000000
C601       C        0.845026        0.343960        0.644882        0.000000
C602       C        0.846000        0.342744        0.699679        0.000000
C603       C        0.858915        0.249209        0.699587        0.000000
C604       C        0.862150        0.197599        0.728639        0.000000
C605       C        0.861639        0.250705        0.644231        0.000000
C606       C        0.872455        0.201865        0.614493        0.000000
C607       C        0.853133        0.296493        0.727387        0.000000
C608       C        0.853731        0.297909        0.616790        0.000000
C609       C        0.853635        0.297686        0.558533        0.000000
C610       C        0.853481        0.433367        0.921771        0.000000
C611       C        0.853221        0.296703        0.785645        0.000000
C612       C        0.941152        0.293050        0.923958        0.000000
C613       C        0.853383        0.160492        0.922927        0.000000
C614       C        0.766046        0.301287        0.920727        0.000000
N615       N        0.777544        0.021386        0.843154        0.000000
N616       N        0.805662        0.419641        0.641869        0.000000
O617       O        0.537414        0.187299        0.976392        0.000000
O618       O        0.853428        0.297196        0.922355        0.000000
O619       O        0.873896        0.263609        0.805707        0.000000
O620       O        0.778211        0.332821        0.888656        0.000000
O621       O        0.832782        0.181132        0.954658        0.000000
O622       O        0.832605        0.329938        0.804682        0.000000
O623       O        0.873996        0.178948        0.891033        0.000000
O624       O        0.778287        0.268675        0.953306        0.000000
O625       O        0.832939        0.266405        0.539272        0.000000
O626       O        0.928667        0.325948        0.955784        0.000000
O627       O        0.874272        0.328830        0.539758        0.000000
O628       O        0.928548        0.261338        0.891673        0.000000
O629       O        0.832763        0.415211        0.889296        0.000000
O630       O        0.874172        0.413490        0.954432        0.000000
Zn631     Zn        0.881462        0.751897        0.379238        0.000000
Zn632     Zn        0.825262        0.842179        0.377843        0.000000
Zn633     Zn        0.825365        0.754870        0.465839        0.000000
Zn634     Zn        0.881624        0.839837        0.466499        0.000000
H635       H        0.680356        0.943752        0.394217        0.000000
H636       H        0.700835        0.892998        0.356504        0.000000
H637       H        0.666481        0.928363        0.328179        0.000000
H638       H        0.593173        0.936240        0.328851        0.000000
H639       H        0.583758        0.954175        0.395909        0.000000
H640       H        0.622799        0.969260        0.370256        0.000000
H641       H        0.548662        0.890250        0.378939        0.000000
H642       H        0.992804        0.864480        0.390879        0.000000
H643       H        0.979332        0.662335        0.466215        0.000000
H644       H        0.955528        0.711735        0.000913        0.000000
H645       H        0.946448        0.697280        0.432689        0.000000
H646       H        0.652125        0.754526        0.445778        0.000000
H647       H        0.620207        0.699711        0.475813        0.000000
H648       H        0.579801        0.640003        0.002059        0.000000
H649       H        0.850133        0.502080        0.213734        0.000000
H650       H        0.807075        0.953271        0.354222        0.000000
H651       H        0.820353        0.597761        0.356322        0.000000
H652       H        0.914171        0.611338        0.496405        0.000000
H653       H        0.889017        0.577584        0.043414        0.000000
H654       H        0.873933        0.637809        0.017866        0.000000
H655       H        0.882789        0.978654        0.032968        0.000000
H656       H        0.919387        0.508339        0.005658        0.000000
H657       H        0.905231        0.949340        0.478905        0.000000
H658       H        0.766652        0.517603        0.379894        0.000000
H659       H        0.762231        0.501244        0.316932        0.000000
H660       H        0.906979        0.985874        0.128054        0.000000
H661       H        0.829602        0.889638        0.075671        0.000000
H662       H        0.841146        0.878719        0.221038        0.000000
H663       H        0.888748        0.689632        0.240187        0.000000
H664       H        0.853053        0.664748        0.204520        0.000000
H665       H        0.846220        0.697854        0.263864        0.000000
H666       H        0.850204        0.678325        0.105226        0.000000
H667       H        0.890997        0.677810        0.137490        0.000000
H668       H        0.885337        0.711361        0.077678        0.000000
H669       H        0.785763        0.894222        0.137176        0.000000
H670       H        0.798803        0.953504        0.120835        0.000000
C671       C        0.699097        0.813540        0.415612        0.000000
C672       C        0.663620        0.826211        0.410495        0.000000
C673       C        0.651691        0.873605        0.387869        0.000000
C674       C        0.676216        0.911776        0.365732        0.000000
C675       C        0.616662        0.885562        0.387372        0.000000
C676       C        0.603498        0.939034        0.369252        0.000000
C677       C        0.593900        0.846852        0.403486        0.000000
C678       C        0.558932        0.855145        0.397428        0.000000
C679       C        0.536385        0.818025        0.413876        0.000000
C680       C        0.501775        0.827714        0.407883        0.000000
C681       C        0.990470        0.743095        0.446477        0.000000
C682       C        0.966636        0.701387        0.462602        0.000000
C683       C        0.525336        0.733924        0.453278        0.000000
C684       C        0.548368        0.771167        0.436894        0.000000
C685       C        0.583269        0.761009        0.443252        0.000000
C686       C        0.606282        0.798799        0.425616        0.000000
C687       C        0.641264        0.789986        0.429249        0.000000
C688       C        0.594252        0.710491        0.468510        0.000000
C689       C        0.571661        0.676456        0.483736        0.000000
C690       C        0.728663        0.802906        0.419944        0.000000
C691       C        0.978534        0.791284        0.424641        0.000000
C692       C        0.838930        0.500120        0.250916        0.000000
C693       C        0.826177        0.997892        0.293286        0.000000
C694       C        0.810662        0.995139        0.345000        0.000000
C695       C        0.833246        0.520887        0.385390        0.000000
C696       C        0.834447        0.575607        0.385835        0.000000
C697       C        0.871353        0.573429        0.462371        0.000000
C698       C        0.888239        0.601576        0.007250        0.000000
C699       C        0.873382        0.517921        0.459150        0.000000
C700       C        0.896292        0.986838        0.496341        0.000000
C701       C        0.853363        0.602237        0.423171        0.000000
C702       C        0.853514        0.991621        0.421473        0.000000
C703       C        0.886675        0.960273        0.125161        0.000000
C704       C        0.863551        0.931090        0.121870        0.000000
C705       C        0.835374        0.895438        0.117825        0.000000
C706       C        0.845026        0.843960        0.144882        0.000000
C707       C        0.846000        0.842744        0.199679        0.000000
C708       C        0.858915        0.749209        0.199587        0.000000
C709       C        0.862150        0.697599        0.228639        0.000000
C710       C        0.861639        0.750705        0.144231        0.000000
C711       C        0.872455        0.701865        0.114493        0.000000
C712       C        0.853133        0.796493        0.227387        0.000000
C713       C        0.853731        0.797909        0.116790        0.000000
C714       C        0.853635        0.797686        0.058533        0.000000
C715       C        0.853481        0.933367        0.421771        0.000000
C716       C        0.853221        0.796703        0.285645        0.000000
C717       C        0.941152        0.793050        0.423958        0.000000
C718       C        0.853383        0.660492        0.422927        0.000000
C719       C        0.766046        0.801287        0.420727        0.000000
N720       N        0.777544        0.521386        0.343154        0.000000
N721       N        0.805662        0.919641        0.141869        0.000000
O722       O        0.537414        0.687299        0.476392        0.000000
O723       O        0.853428        0.797196        0.422355        0.000000
O724       O        0.873896        0.763609        0.305707        0.000000
O725       O        0.778211        0.832821        0.388656        0.000000
O726       O        0.832782        0.681132        0.454658        0.000000
O727       O        0.832605        0.829938        0.304682        0.000000
O728       O        0.873996        0.678948        0.391033        0.000000
O729       O        0.778287        0.768675        0.453306        0.000000
O730       O        0.832939        0.766405        0.039272        0.000000
O731       O        0.928667        0.825948        0.455784        0.000000
O732       O        0.874272        0.828830        0.039758        0.000000
O733       O        0.928548        0.761338        0.391673        0.000000
O734       O        0.832763        0.915211        0.389296        0.000000
O735       O        0.874172        0.913490        0.454432        0.000000
Zn736     Zn        0.881462        0.751897        0.879238        0.000000
Zn737     Zn        0.825262        0.842179        0.877843        0.000000
Zn738     Zn        0.825365        0.754870        0.965839        0.000000
Zn739     Zn        0.881624        0.839837        0.966499        0.000000
H740       H        0.680356        0.943752        0.894217        0.000000
H741       H        0.700835        0.892998        0.856504        0.000000
H742       H        0.666481        0.928363        0.828179        0.000000
H743       H        0.593173        0.936240        0.828851        0.000000
H744       H        0.583758        0.954175        0.895909        0.000000
H745       H        0.622799        0.969260        0.870256        0.000000
H746       H        0.548662        0.890250        0.878939        0.000000
H747       H        0.992804        0.864480        0.890879        0.000000
H748       H        0.979332        0.662335        0.966215        0.000000
H749       H        0.955528        0.711735        0.500913        0.000000
H750       H        0.946448        0.697280        0.932689        0.000000
H751       H        0.652125        0.754526        0.945778        0.000000
H752       H        0.620207        0.699711        0.975813        0.000000
H753       H        0.579801        0.640003        0.502059        0.000000
H754       H        0.850133        0.502080        0.713734        0.000000
H755       H        0.807075        0.953271        0.854222        0.000000
H756       H        0.820353        0.597761        0.856322        0.000000
H757       H        0.914171        0.611338        0.996405        0.000000
H758       H        0.889017        0.577584        0.543414        0.000000
H759       H        0.873933        0.637809        0.517866        0.000000
H760       H        0.882789        0.978654        0.532968        0.000000
H761       H        0.919387        0.508339        0.505658        0.000000
H762       H        0.905231        0.949340        0.978905        0.000000
H763       H        0.766652        0.517603        0.879894        0.000000
H764       H        0.762231        0.501244        0.816932        0.000000
H765       H        0.906979        0.985874        0.628054        0.000000
H766       H        0.829602        0.889638        0.575672        0.000000
H767       H        0.841146        0.878719        0.721038        0.000000
H768       H        0.888748        0.689632        0.740187        0.000000
H769       H        0.853053        0.664748        0.704520        0.000000
H770       H        0.846220        0.697854        0.763864        0.000000
H771       H        0.850204        0.678325        0.605226        0.000000
H772       H        0.890997        0.677810        0.637490        0.000000
H773       H        0.885337        0.711361        0.577678        0.000000
H774       H        0.785763        0.894222        0.637176        0.000000
H775       H        0.798803        0.953504        0.620835        0.000000
C776       C        0.699097        0.813540        0.915612        0.000000
C777       C        0.663620        0.826211        0.910495        0.000000
C778       C        0.651691        0.873605        0.887869        0.000000
C779       C        0.676216        0.911776        0.865732        0.000000
C780       C        0.616662        0.885562        0.887372        0.000000
C781       C        0.603498        0.939034        0.869252        0.000000
C782       C        0.593900        0.846852        0.903486        0.000000
C783       C        0.558932        0.855145        0.897428        0.000000
C784       C        0.536385        0.818025        0.913876        0.000000
C785       C        0.501775        0.827714        0.907883        0.000000
C786       C        0.990470        0.743095        0.946477        0.000000
C787       C        0.966636        0.701387        0.962602        0.000000
C788       C        0.525336        0.733924        0.953278        0.000000
C789       C        0.548368        0.771167        0.936894        0.000000
C790       C        0.583269        0.761009        0.943252        0.000000
C791       C        0.606282        0.798799        0.925616        0.000000
C792       C        0.641264        0.789986        0.929249        0.000000
C793       C        0.594252        0.710491        0.968510        0.000000
C794       C        0.571661        0.676456        0.983736        0.000000
C795       C        0.728663        0.802906        0.919944        0.000000
C796       C        0.978534        0.791284        0.924641        0.000000
C797       C        0.838930        0.500120        0.750916        0.000000
C798       C        0.826177        0.997892        0.793286        0.000000
C799       C        0.810662        0.995139        0.845000        0.000000
C800       C        0.833246        0.520887        0.885390        0.000000
C801       C        0.834447        0.575607        0.885835        0.000000
C802       C        0.871353        0.573429        0.962371        0.000000
C803       C        0.888239        0.601576        0.507250        0.000000
C804       C        0.873382        0.517921        0.959150        0.000000
C805       C        0.896292        0.986838        0.996341        0.000000
C806       C        0.853363        0.602237        0.923171        0.000000
C807       C        0.853514        0.991621        0.921473        0.000000
C808       C        0.886675        0.960273        0.625161        0.000000
C809       C        0.863551        0.931090        0.621870        0.000000
C810       C        0.835374        0.895438        0.617825        0.000000
C811       C        0.845026        0.843960        0.644882        0.000000
C812       C        0.846000        0.842744        0.699679        0.000000
C813       C        0.858915        0.749209        0.699587        0.000000
C814       C        0.862150        0.697599        0.728639        0.000000
C815       C        0.861639        0.750705        0.644231        0.000000
C816       C        0.872455        0.701865        0.614493        0.000000
C817       C        0.853133        0.796493        0.727387        0.000000
C818       C        0.853731        0.797909        0.616790        0.000000
C819       C        0.853635        0.797686        0.558533        0.000000
C820       C        0.853481        0.933367        0.921771        0.000000
C821       C        0.853221        0.796703        0.785645        0.000000
C822       C        0.941152        0.793050        0.923958        0.000000
C823       C        0.853383        0.660492        0.922927        0.000000
C824       C        0.766046        0.801287        0.920727        0.000000
N825       N        0.777544        0.521386        0.843154        0.000000
N826       N        0.805662        0.919641        0.641869        0.000000
O827       O        0.537414        0.687299        0.976392        0.000000
O828       O        0.853428        0.797196        0.922355        0.000000
O829       O        0.873896        0.763609        0.805707        0.000000
O830       O        0.778211        0.832821        0.888656        0.000000
O831       O        0.832782        0.681132        0.954658        0.000000
O832       O        0.832605        0.829938        0.804682        0.000000
O833       O        0.873996        0.678948        0.891033        0.000000
O834       O        0.778287        0.768675        0.953306        0.000000
O835       O        0.832939        0.766405        0.539272        0.000000
O836       O        0.928667        0.825948        0.955784        0.000000
O837       O        0.874272        0.828830        0.539758        0.000000
O838       O        0.928548        0.761338        0.891673        0.000000
O839       O        0.832763        0.915211        0.889296        0.000000
O840       O        0.874172        0.913490        0.954432        0.000000
loop_
_geom_bond_atom_site_label_1
_geom_bond_atom_site_label_2
_geom_bond_distance
_ccdc_geom_bond_type
Zn1         O98   1.922   S
Zn1         O93   1.941   S
Zn1        O103   1.922   S
Zn1         O94   1.922   S
Zn2         O95   1.922   S
Zn2         O97   1.922   S
Zn2         O93   1.941   S
Zn2        O104   1.922   S
Zn3         O96   1.922   S
Zn3         O93   1.941   S
Zn3         O99   1.922   S
Zn3        O205   1.922   S
Zn4         O93   1.941   S
Zn4        O101   1.922   S
Zn4        O105   1.922   S
Zn4        O207   1.922   S
H5          C44    1.11   S
H6          C44   1.109   S
H7          C44    1.11   S
H8          C46    1.11   S
H9          C46    1.11   S
H10         C46   1.107   S
H11         C48   1.082   S
H12        C470   1.085   S
H13         C52    1.11   S
H14        C157    1.11   S
H15         C52    1.11   S
H16         C57   1.077   S
H17         C58   1.077   S
H18        C164   1.082   S
H19         C62   1.058   S
H20         C64    1.11   S
H21         C66   1.084   S
H22        C173    1.11   S
H23         C68   1.109   S
H24         C68    1.11   S
H25        C175    1.11   S
H26        C385    1.11   S
H27         C70   1.109   S
H28         N90   1.046   S
H29         N90   1.047   S
H30         C73   1.058   S
H31         C75    1.11   S
H32         C77   1.084   S
H33         C79    1.11   S
H34         C79   1.109   S
H35         C79    1.11   S
H36         C81    1.11   S
H37         C81    1.11   S
H38         C81   1.109   S
H39         N91   1.046   S
H40         N91   1.047   S
C41         C42   1.446   S
C41         C60   1.206   T
C42         C57   1.394   A
C42         C43    1.41   A
C43         C44   1.517   S
C43         C45   1.421   A
C45         C46    1.52   S
C45         C47   1.427   S
C47         C48   1.411   A
C47         C56   1.425   A
C48         C49   1.396   S
C49         C50   1.401   A
C49         C54   1.403   A
C50        H432  17.127   S
C50        C481   1.405   A
C51         C61   1.419   A
C51         C52   1.511   S
C51        C473   1.411   A
C52        H119  22.866   S
C53         O92     1.4   S
C53         C54    1.41   A
C53        C471  17.889   A
C54         C55   1.415   S
C55         C56    1.43   A
C55         C58   1.495   S
C56         C57   1.408   S
C58         C59   1.333   D
C59         O92   1.396   S
C59        H123  22.626   S
C60         C89    1.49   S
C61         C87    1.49   S
C61        C470  17.119   A
C62        C273   1.206   T
C63         C64   1.471   S
C63        C272  22.823   T
C64        C275   1.524   S
C64        N300   1.464   S
C65         C66   1.402   A
C65        C274  22.227   S
C65        C282   1.417   A
C66         C71   1.399   A
C67         C69   1.422   A
C67         C71   1.418   A
C67        C173   1.516   S
C68        H127  22.993   S
C68        C172  23.078   S
C69        C280   1.518   S
C69        C282   1.421   A
C70        H130  23.443   S
C70        H341  19.015   S
C70        C279  22.301   S
C71         C88    1.49   S
C72         C85    1.49   S
C72        C275  22.402   A
C72        C279  22.355   A
C73         C74   1.206   T
C74         C75   1.471   S
C75         N91   1.464   S
C75         C76   1.524   S
C76         C77   1.402   A
C76         C83   1.417   A
C77         C82   1.399   A
C78         C82   1.418   A
C78         C79   1.516   S
C78         C80   1.422   A
C80         C83   1.421   A
C80         C81   1.518   S
C82         C86    1.49   S
C83         C84    1.49   S
C84        O100   1.262   A
C84        O102   1.262   A
C85        O105   1.262   A
C85        O104   1.262   A
C86         O97   1.267   A
C86         O94   1.267   A
C87        O101   1.267   A
C87        O103   1.267   A
C88         O96   1.267   A
C88         O98   1.267   A
C89         O99   1.262   A
C89         O95   1.262   A
N90        C274   22.44   S
O100      Zn108  23.683   S
O102      Zn109  23.655   S
Zn106      O203   1.922   S
Zn106      O198   1.941   S
Zn106      O208   1.922   S
Zn106      O199   1.922   S
Zn107      O200   1.922   S
Zn107      O202   1.922   S
Zn107      O198   1.941   S
Zn107      O209   1.922   S
Zn108      O201   1.922   S
Zn108      O198   1.941   S
Zn108      O204   1.922   S
Zn109      O198   1.941   S
Zn109      O206   1.922   S
Zn109      O210   1.922   S
H110       C149    1.11   S
H111       C149   1.109   S
H112       C149    1.11   S
H113       C151    1.11   S
H114       C151    1.11   S
H115       C151   1.107   S
H116       C153   1.082   S
H117       C575   1.085   S
H118       C157    1.11   S
H120       C157    1.11   S
H121       C162   1.077   S
H122       C163   1.077   S
H124       C167   1.058   S
H125       C169    1.11   S
H126       C171   1.084   S
H128       C173   1.109   S
H129       C173    1.11   S
H131       C280    1.11   S
H132       C175   1.109   S
H133       N195   1.046   S
H134       N195   1.047   S
H135       C178   1.058   S
H136       C180    1.11   S
H137       C182   1.084   S
H138       C184    1.11   S
H139       C184   1.109   S
H140       C184    1.11   S
H141       C186    1.11   S
H142       C186    1.11   S
H143       C186   1.109   S
H144       N196   1.046   S
H145       N196   1.047   S
C146       C147   1.446   S
C146       C165   1.206   T
C147       C162   1.394   A
C147       C148    1.41   A
C148       C149   1.517   S
C148       C150   1.421   A
C150       C151    1.52   S
C150       C152   1.427   S
C152       C153   1.411   A
C152       C161   1.425   A
C153       C154   1.396   S
C154       C155   1.401   A
C154       C159   1.403   A
C155       H537   1.085   S
C155       C586   1.405   A
C156       C166   1.419   A
C156       C578   1.411   A
C156       C157   1.511   S
C158       C576   1.411   A
C158       O197     1.4   S
C158       C159    1.41   A
C159       C160   1.415   S
C160       C161    1.43   A
C160       C163   1.495   S
C161       C162   1.408   S
C163       C164   1.333   D
C164       O197   1.396   S
C165       C194    1.49   S
C166       C575   1.405   A
C166       C192    1.49   S
C167       C378   1.206   T
C168       C377   1.206   T
C168       C169   1.471   S
C169       C380   1.524   S
C169       N405   1.464   S
C170       C379   1.524   S
C170       C171   1.402   A
C170       C387   1.417   A
C171       C176   1.399   A
C172       C174   1.422   A
C172       C176   1.418   A
C174       C385   1.518   S
C174       C387   1.421   A
C175       H236    1.11   S
C175       C384   1.518   S
C176       C193    1.49   S
C177       C380   1.417   A
C177       C384   1.421   A
C177       C190    1.49   S
C178       C179   1.206   T
C179       C180   1.471   S
C180       N196   1.464   S
C180       C181   1.524   S
C181       C182   1.402   A
C181       C188   1.417   A
C182       C187   1.399   A
C183       C187   1.418   A
C183       C184   1.516   S
C183       C185   1.422   A
C185       C188   1.421   A
C185       C186   1.518   S
C187       C191    1.49   S
C188       C189    1.49   S
C189       O205   1.262   A
C189       O207   1.262   A
C190       O210   1.262   A
C190       O209   1.262   A
C191       O202   1.267   A
C191       O199   1.267   A
C192       O206   1.267   A
C192       O208   1.267   A
C193       O201   1.267   A
C193       O203   1.267   A
C194       O204   1.262   A
C194       O200   1.262   A
N195       C379   1.464   S
Zn211      O308   1.922   S
Zn211      O303   1.941   S
Zn211      O313   1.922   S
Zn211      O304   1.922   S
Zn212      O305   1.922   S
Zn212      O307   1.922   S
Zn212      O303   1.941   S
Zn212      O314   1.922   S
Zn213      O306   1.922   S
Zn213      O303   1.941   S
Zn213      O309   1.922   S
Zn213      O415   1.922   S
Zn214      O417   1.922   S
Zn214      O303   1.941   S
Zn214      O311   1.922   S
Zn214      O315   1.922   S
H215       C254    1.11   S
H216       C254   1.109   S
H217       C254    1.11   S
H218       C256    1.11   S
H219       C256    1.11   S
H220       C256   1.107   S
H221       C258   1.082   S
H222       C680   1.085   S
H223       C262    1.11   S
H224       C367    1.11   S
H225       C262    1.11   S
H226       C267   1.077   S
H227       C268   1.077   S
H228       C374   1.082   S
H229       C272   1.058   S
H230       C274    1.11   S
H231       C276   1.084   S
H232       C383    1.11   S
H233       C278   1.109   S
H234       C278    1.11   S
H235       C385    1.11   S
H237       C280   1.109   S
H238       N300   1.046   S
H239       N300   1.047   S
H240       C283   1.058   S
H241       C285    1.11   S
H242       C287   1.084   S
H243       C289    1.11   S
H244       C289   1.109   S
H245       C289    1.11   S
H246       C291    1.11   S
H247       C291    1.11   S
H248       C291   1.109   S
H249       N301   1.046   S
H250       N301   1.047   S
C251       C252   1.446   S
C251       C270   1.206   T
C252       C267   1.394   A
C252       C253    1.41   A
C253       C254   1.517   S
C253       C255   1.421   A
C255       C256    1.52   S
C255       C257   1.427   S
C257       C258   1.411   A
C257       C266   1.425   A
C258       C259   1.396   S
C259       C260   1.401   A
C259       C264   1.403   A
C260       H642   1.085   S
C260       C691   1.405   A
C261       C271   1.419   A
C261       C683   1.411   A
C261       C262   1.511   S
C262       H329    1.11   S
C263       C681   1.411   A
C263       O302     1.4   S
C263       C264    1.41   A
C264       C265   1.415   S
C265       C266    1.43   A
C265       C268   1.495   S
C266       C267   1.408   S
C268       C269   1.333   D
C269       H333   1.082   S
C269       O302   1.396   S
C270       C299    1.49   S
C271       C680   1.405   A
C271       C297    1.49   S
C273       C274   1.471   S
C275       C276   1.402   A
C276       C281   1.399   A
C277       C383   1.516   S
C277       C279   1.422   A
C277       C281   1.418   A
C278       H337    1.11   S
C278       C382   1.516   S
C280       H340    1.11   S
C281       C298    1.49   S
C282       C295    1.49   S
C283       C284   1.206   T
C284       C285   1.471   S
C285       N301   1.464   S
C285       C286   1.524   S
C286       C287   1.402   A
C286       C293   1.417   A
C287       C292   1.399   A
C288       C292   1.418   A
C288       C289   1.516   S
C288       C290   1.422   A
C290       C293   1.421   A
C290       C291   1.518   S
C292       C296    1.49   S
C293       C294    1.49   S
C294       O310   1.262   A
C294       O312   1.262   A
C295       O315   1.262   A
C295       O314   1.262   A
C296       O307   1.267   A
C296       O304   1.267   A
C297       O311   1.267   A
C297       O313   1.267   A
C298       O306   1.267   A
C298       O308   1.267   A
C299       O309   1.262   A
C299       O305   1.262   A
O310      Zn318   1.922   S
O312      Zn319   1.922   S
Zn316      O413   1.922   S
Zn316      O408   1.941   S
Zn316      O418   1.922   S
Zn316      O409   1.922   S
Zn317      O410   1.922   S
Zn317      O412   1.922   S
Zn317      O408   1.941   S
Zn317      O419   1.922   S
Zn318      O411   1.922   S
Zn318      O408   1.941   S
Zn318      O414   1.922   S
Zn319      O408   1.941   S
Zn319      O416   1.922   S
Zn319      O420   1.922   S
H320       C359    1.11   S
H321       C359   1.109   S
H322       C359    1.11   S
H323       C361    1.11   S
H324       C361    1.11   S
H325       C361   1.107   S
H326       C363   1.082   S
H327       C785   1.085   S
H328       C367    1.11   S
H330       C367    1.11   S
H331       C372   1.077   S
H332       C373   1.077   S
H334       C377   1.058   S
H335       C379    1.11   S
H336       C381   1.084   S
H338       C383   1.109   S
H339       C383    1.11   S
H342       C385   1.109   S
H343       N405   1.046   S
H344       N405   1.047   S
H345       C388   1.058   S
H346       C390    1.11   S
H347       C392   1.084   S
H348       C394    1.11   S
H349       C394   1.109   S
H350       C394    1.11   S
H351       C396    1.11   S
H352       C396    1.11   S
H353       C396   1.109   S
H354       N406   1.046   S
H355       N406   1.047   S
C356       C357   1.446   S
C356       C375   1.206   T
C357       C372   1.394   A
C357       C358    1.41   A
C358       C359   1.517   S
C358       C360   1.421   A
C360       C361    1.52   S
C360       C362   1.427   S
C362       C363   1.411   A
C362       C371   1.425   A
C363       C364   1.396   S
C364       C365   1.401   A
C364       C369   1.403   A
C365       H747   1.085   S
C365       C796   1.405   A
C366       C376   1.419   A
C366       C788   1.411   A
C366       C367   1.511   S
C368       C786   1.411   A
C368       O407     1.4   S
C368       C369    1.41   A
C369       C370   1.415   S
C370       C371    1.43   A
C370       C373   1.495   S
C371       C372   1.408   S
C373       C374   1.333   D
C374       O407   1.396   S
C375       C404    1.49   S
C376       C785   1.405   A
C376       C402    1.49   S
C378       C379   1.471   S
C380       C381   1.402   A
C381       C386   1.399   A
C382       C384   1.422   A
C382       C386   1.418   A
C386       C403    1.49   S
C387       C400    1.49   S
C388       C389   1.206   T
C389       C390   1.471   S
C390       N406   1.464   S
C390       C391   1.524   S
C391       C392   1.402   A
C391       C398   1.417   A
C392       C397   1.399   A
C393       C397   1.418   A
C393       C394   1.516   S
C393       C395   1.422   A
C395       C398   1.421   A
C395       C396   1.518   S
C397       C401    1.49   S
C398       C399    1.49   S
C399       O415   1.262   A
C399       O417   1.262   A
C400       O420   1.262   A
C400       O419   1.262   A
C401       O412   1.267   A
C401       O409   1.267   A
C402       O416   1.267   A
C402       O418   1.267   A
C403       O411   1.267   A
C403       O413   1.267   A
C404       O414   1.262   A
C404       O410   1.262   A
Zn421      O518   1.922   S
Zn421      O513   1.941   S
Zn421      O523   1.922   S
Zn421      O514   1.922   S
Zn422      O515   1.922   S
Zn422      O517   1.922   S
Zn422      O513   1.941   S
Zn422      O524   1.922   S
Zn423      O516   1.922   S
Zn423      O513   1.941   S
Zn423      O519   1.922   S
Zn423      O625   1.922   S
Zn424      O627   1.922   S
Zn424      O513   1.941   S
Zn424      O521   1.922   S
Zn424      O525   1.922   S
H425       C464    1.11   S
H426       C464   1.109   S
H427       C464    1.11   S
H428       C466    1.11   S
H429       C466    1.11   S
H430       C466   1.107   S
H431       C468   1.082   S
H433       C472    1.11   S
H434       C577    1.11   S
H435       C472    1.11   S
H436       C477   1.077   S
H437       C478   1.077   S
H438       C584   1.082   S
H439       C482   1.058   S
H440       C484    1.11   S
H441       C486   1.084   S
H442       C593    1.11   S
H443       C488   1.109   S
H444       C488    1.11   S
H445       C595    1.11   S
H446       C805    1.11   S
H447       C490   1.109   S
H448       N510   1.046   S
H449       N510   1.047   S
H450       C493   1.058   S
H451       C495    1.11   S
H452       C497   1.084   S
H453       C499    1.11   S
H454       C499   1.109   S
H455       C499    1.11   S
H456       C501    1.11   S
H457       C501    1.11   S
H458       C501   1.109   S
H459       N511   1.046   S
H460       N511   1.047   S
C461       C462   1.446   S
C461       C480   1.206   T
C462       C477   1.394   A
C462       C463    1.41   A
C463       C464   1.517   S
C463       C465   1.421   A
C465       C466    1.52   S
C465       C467   1.427   S
C467       C468   1.411   A
C467       C476   1.425   A
C468       C469   1.396   S
C469       C470   1.401   A
C469       C474   1.403   A
C471       C481   1.419   A
C471       C472   1.511   S
C472       H539    1.11   S
C473       O512     1.4   S
C473       C474    1.41   A
C474       C475   1.415   S
C475       C476    1.43   A
C475       C478   1.495   S
C476       C477   1.408   S
C478       C479   1.333   D
C479       H543   1.082   S
C479       O512   1.396   S
C480       C509    1.49   S
C481       C507    1.49   S
C482       C693   1.206   T
C483       C692   1.206   T
C483       C484   1.471   S
C484       C695   1.524   S
C484       N720   1.464   S
C485       C694   1.524   S
C485       C486   1.402   A
C485       C702   1.417   A
C486       C491   1.399   A
C487       C593   1.516   S
C487       C489   1.422   A
C487       C491   1.418   A
C488       H547    1.11   S
C488       C592   1.516   S
C489       C700   1.518   S
C489       C702   1.421   A
C490       H550    1.11   S
C490       H761    1.11   S
C490       C699   1.518   S
C491       C508    1.49   S
C492       C695   1.417   A
C492       C699   1.421   A
C492       C505    1.49   S
C493       C494   1.206   T
C494       C495   1.471   S
C495       N511   1.464   S
C495       C496   1.524   S
C496       C497   1.402   A
C496       C503   1.417   A
C497       C502   1.399   A
C498       C502   1.418   A
C498       C499   1.516   S
C498       C500   1.422   A
C500       C503   1.421   A
C500       C501   1.518   S
C502       C506    1.49   S
C503       C504    1.49   S
C504       O520   1.262   A
C504       O522   1.262   A
C505       O525   1.262   A
C505       O524   1.262   A
C506       O517   1.267   A
C506       O514   1.267   A
C507       O521   1.267   A
C507       O523   1.267   A
C508       O516   1.267   A
C508       O518   1.267   A
C509       O519   1.262   A
C509       O515   1.262   A
N510       C694   1.464   S
O520      Zn528   1.922   S
O522      Zn529   1.922   S
Zn526      O623   1.922   S
Zn526      O618   1.941   S
Zn526      O628   1.922   S
Zn526      O619   1.922   S
Zn527      O620   1.922   S
Zn527      O622   1.922   S
Zn527      O618   1.941   S
Zn527      O629   1.922   S
Zn528      O621   1.922   S
Zn528      O618   1.941   S
Zn528      O624   1.922   S
Zn529      O618   1.941   S
Zn529      O626   1.922   S
Zn529      O630   1.922   S
H530       C569    1.11   S
H531       C569   1.109   S
H532       C569    1.11   S
H533       C571    1.11   S
H534       C571    1.11   S
H535       C571   1.107   S
H536       C573   1.082   S
H538       C577    1.11   S
H540       C577    1.11   S
H541       C582   1.077   S
H542       C583   1.077   S
H544       C587   1.058   S
H545       C589    1.11   S
H546       C591   1.084   S
H548       C593   1.109   S
H549       C593    1.11   S
H551       C700    1.11   S
H552       C595   1.109   S
H553       N615   1.046   S
H554       N615   1.047   S
H555       C598   1.058   S
H556       C600    1.11   S
H557       C602   1.084   S
H558       C604    1.11   S
H559       C604   1.109   S
H560       C604    1.11   S
H561       C606    1.11   S
H562       C606    1.11   S
H563       C606   1.109   S
H564       N616   1.046   S
H565       N616   1.047   S
C566       C567   1.446   S
C566       C585   1.206   T
C567       C582   1.394   A
C567       C568    1.41   A
C568       C569   1.517   S
C568       C570   1.421   A
C570       C571    1.52   S
C570       C572   1.427   S
C572       C573   1.411   A
C572       C581   1.425   A
C573       C574   1.396   S
C574       C575   1.401   A
C574       C579   1.403   A
C576       C586   1.419   A
C576       C577   1.511   S
C578       O617     1.4   S
C578       C579    1.41   A
C579       C580   1.415   S
C580       C581    1.43   A
C580       C583   1.495   S
C581       C582   1.408   S
C583       C584   1.333   D
C584       O617   1.396   S
C585       C614    1.49   S
C586       C612    1.49   S
C587       C798   1.206   T
C588       C797   1.206   T
C588       C589   1.471   S
C589       C800   1.524   S
C589       N825   1.464   S
C590       C799   1.524   S
C590       C591   1.402   A
C590       C807   1.417   A
C591       C596   1.399   A
C592       C594   1.422   A
C592       C596   1.418   A
C594       C805   1.518   S
C594       C807   1.421   A
C595       H656    1.11   S
C595       C804   1.518   S
C596       C613    1.49   S
C597       C800   1.417   A
C597       C804   1.421   A
C597       C610    1.49   S
C598       C599   1.206   T
C599       C600   1.471   S
C600       N616   1.464   S
C600       C601   1.524   S
C601       C602   1.402   A
C601       C608   1.417   A
C602       C607   1.399   A
C603       C607   1.418   A
C603       C604   1.516   S
C603       C605   1.422   A
C605       C608   1.421   A
C605       C606   1.518   S
C607       C611    1.49   S
C608       C609    1.49   S
C609       O625   1.262   A
C609       O627   1.262   A
C610       O630   1.262   A
C610       O629   1.262   A
C611       O622   1.267   A
C611       O619   1.267   A
C612       O626   1.267   A
C612       O628   1.267   A
C613       O621   1.267   A
C613       O623   1.267   A
C614       O624   1.262   A
C614       O620   1.262   A
N615       C799   1.464   S
Zn631      O728   1.922   S
Zn631      O723   1.941   S
Zn631      O733   1.922   S
Zn631      O724   1.922   S
Zn632      O725   1.922   S
Zn632      O727   1.922   S
Zn632      O723   1.941   S
Zn632      O734   1.922   S
Zn633      O726   1.922   S
Zn633      O723   1.941   S
Zn633      O729   1.922   S
Zn633      O835   1.922   S
Zn634      O837   1.922   S
Zn634      O723   1.941   S
Zn634      O731   1.922   S
Zn634      O735   1.922   S
H635       C674    1.11   S
H636       C674   1.109   S
H637       C674    1.11   S
H638       C676    1.11   S
H639       C676    1.11   S
H640       C676   1.107   S
H641       C678   1.082   S
H643       C682    1.11   S
H644       C787    1.11   S
H645       C682    1.11   S
H646       C687   1.077   S
H647       C688   1.077   S
H648       C794   1.082   S
H649       C692   1.058   S
H650       C694    1.11   S
H651       C696   1.084   S
H652       C803    1.11   S
H653       C698   1.109   S
H654       C698    1.11   S
H655       C805    1.11   S
H657       C700   1.109   S
H658       N720   1.046   S
H659       N720   1.047   S
H660       C703   1.058   S
H661       C705    1.11   S
H662       C707   1.084   S
H663       C709    1.11   S
H664       C709   1.109   S
H665       C709    1.11   S
H666       C711    1.11   S
H667       C711    1.11   S
H668       C711   1.109   S
H669       N721   1.046   S
H670       N721   1.047   S
C671       C672   1.446   S
C671       C690   1.206   T
C672       C687   1.394   A
C672       C673    1.41   A
C673       C674   1.517   S
C673       C675   1.421   A
C675       C676    1.52   S
C675       C677   1.427   S
C677       C678   1.411   A
C677       C686   1.425   A
C678       C679   1.396   S
C679       C680   1.401   A
C679       C684   1.403   A
C681       C691   1.419   A
C681       C682   1.511   S
C682       H749    1.11   S
C683       O722     1.4   S
C683       C684    1.41   A
C684       C685   1.415   S
C685       C686    1.43   A
C685       C688   1.495   S
C686       C687   1.408   S
C688       C689   1.333   D
C689       H753   1.082   S
C689       O722   1.396   S
C690       C719    1.49   S
C691       C717    1.49   S
C693       C694   1.471   S
C695       C696   1.402   A
C696       C701   1.399   A
C697       C803   1.516   S
C697       C699   1.422   A
C697       C701   1.418   A
C698       H757    1.11   S
C698       C802   1.516   S
C700       H760    1.11   S
C701       C718    1.49   S
C702       C715    1.49   S
C703       C704   1.206   T
C704       C705   1.471   S
C705       N721   1.464   S
C705       C706   1.524   S
C706       C707   1.402   A
C706       C713   1.417   A
C707       C712   1.399   A
C708       C712   1.418   A
C708       C709   1.516   S
C708       C710   1.422   A
C710       C713   1.421   A
C710       C711   1.518   S
C712       C716    1.49   S
C713       C714    1.49   S
C714       O730   1.262   A
C714       O732   1.262   A
C715       O735   1.262   A
C715       O734   1.262   A
C716       O727   1.267   A
C716       O724   1.267   A
C717       O731   1.267   A
C717       O733   1.267   A
C718       O726   1.267   A
C718       O728   1.267   A
C719       O729   1.262   A
C719       O725   1.262   A
O730      Zn738   1.922   S
O732      Zn739   1.922   S
Zn736      O833   1.922   S
Zn736      O828   1.941   S
Zn736      O838   1.922   S
Zn736      O829   1.922   S
Zn737      O830   1.922   S
Zn737      O832   1.922   S
Zn737      O828   1.941   S
Zn737      O839   1.922   S
Zn738      O831   1.922   S
Zn738      O828   1.941   S
Zn738      O834   1.922   S
Zn739      O828   1.941   S
Zn739      O836   1.922   S
Zn739      O840   1.922   S
H740       C779    1.11   S
H741       C779   1.109   S
H742       C779    1.11   S
H743       C781    1.11   S
H744       C781    1.11   S
H745       C781   1.107   S
H746       C783   1.082   S
H748       C787    1.11   S
H750       C787    1.11   S
H751       C792   1.077   S
H752       C793   1.077   S
H754       C797   1.058   S
H755       C799    1.11   S
H756       C801   1.084   S
H758       C803   1.109   S
H759       C803    1.11   S
H762       C805   1.109   S
H763       N825   1.046   S
H764       N825   1.047   S
H765       C808   1.058   S
H766       C810    1.11   S
H767       C812   1.084   S
H768       C814    1.11   S
H769       C814   1.109   S
H770       C814    1.11   S
H771       C816    1.11   S
H772       C816    1.11   S
H773       C816   1.109   S
H774       N826   1.046   S
H775       N826   1.047   S
C776       C777   1.446   S
C776       C795   1.206   T
C777       C792   1.394   A
C777       C778    1.41   A
C778       C779   1.517   S
C778       C780   1.421   A
C780       C781    1.52   S
C780       C782   1.427   S
C782       C783   1.411   A
C782       C791   1.425   A
C783       C784   1.396   S
C784       C785   1.401   A
C784       C789   1.403   A
C786       C796   1.419   A
C786       C787   1.511   S
C788       O827     1.4   S
C788       C789    1.41   A
C789       C790   1.415   S
C790       C791    1.43   A
C790       C793   1.495   S
C791       C792   1.408   S
C793       C794   1.333   D
C794       O827   1.396   S
C795       C824    1.49   S
C796       C822    1.49   S
C798       C799   1.471   S
C800       C801   1.402   A
C801       C806   1.399   A
C802       C804   1.422   A
C802       C806   1.418   A
C806       C823    1.49   S
C807       C820    1.49   S
C808       C809   1.206   T
C809       C810   1.471   S
C810       N826   1.464   S
C810       C811   1.524   S
C811       C812   1.402   A
C811       C818   1.417   A
C812       C817   1.399   A
C813       C817   1.418   A
C813       C814   1.516   S
C813       C815   1.422   A
C815       C818   1.421   A
C815       C816   1.518   S
C817       C821    1.49   S
C818       C819    1.49   S
C819       O835   1.262   A
C819       O837   1.262   A
C820       O840   1.262   A
C820       O839   1.262   A
C821       O832   1.267   A
C821       O829   1.267   A
C822       O836   1.267   A
C822       O838   1.267   A
C823       O831   1.267   A
C823       O833   1.267   A
C824       O834   1.262   A
C824       O830   1.262   A
