C20H14N2
APtclcactv03282407553D 0   0.00000     0.00000
 
 36 37  0  0  0  0  0  0  0  0999 V2000
   -9.3599   -0.8147   -0.0008 N   0  0  0  0  0  0  0  0  0  0  0  0
   -8.2667   -0.5058   -0.0008 C   0  0  0  0  0  0  0  0  0  0  0  0
   -6.8887   -0.1164   -0.0007 C   0  0  0  0  0  0  0  0  0  0  0  0
   -6.5456    1.2401    0.0003 C   0  0  0  0  0  0  0  0  0  0  0  0
   -5.2324    1.6124    0.0003 C   0  0  0  0  0  0  0  0  0  0  0  0
   -4.2278    0.6356   -0.0002 C   0  0  0  0  0  0  0  0  0  0  0  0
   -2.8149    1.0349    0.0003 C   0  0  0  0  0  0  0  0  0  0  0  0
   -1.8443    0.0903   -0.0002 C   0  0  0  0  0  0  0  0  0  0  0  0
   -0.4870    0.4739    0.0002 C   0  0  0  0  0  0  0  0  0  0  0  0
    0.4870   -0.4739   -0.0003 C   0  0  0  0  0  0  0  0  0  0  0  0
    1.8443   -0.0903    0.0002 C   0  0  0  0  0  0  0  0  0  0  0  0
    2.8149   -1.0349   -0.0004 C   0  0  0  0  0  0  0  0  0  0  0  0
    4.2277   -0.6356    0.0002 C   0  0  0  0  0  0  0  0  0  0  0  0
    5.2324   -1.6124   -0.0004 C   0  0  0  0  0  0  0  0  0  0  0  0
    6.5456   -1.2401   -0.0004 C   0  0  0  0  0  0  0  0  0  0  0  0
    6.8887    0.1164    0.0006 C   0  0  0  0  0  0  0  0  0  0  0  0
    8.2667    0.5058    0.0011 C   0  0  0  0  0  0  0  0  0  0  0  0
    9.3599    0.8147    0.0015 N   0  0  0  0  0  0  0  0  0  0  0  0
    5.8864    1.0926    0.0007 C   0  0  0  0  0  0  0  0  0  0  0  0
    4.5726    0.7226   -0.0046 C   0  0  0  0  0  0  0  0  0  0  0  0
   -4.5726   -0.7226   -0.0008 C   0  0  0  0  0  0  0  0  0  0  0  0
   -5.8864   -1.0926    0.0041 C   0  0  0  0  0  0  0  0  0  0  0  0
   -7.3201    1.9927    0.0008 H   0  0  0  0  0  0  0  0  0  0  0  0
   -4.9678    2.6595    0.0004 H   0  0  0  0  0  0  0  0  0  0  0  0
   -2.5496    2.0818    0.0011 H   0  0  0  0  0  0  0  0  0  0  0  0
   -2.1096   -0.9566   -0.0011 H   0  0  0  0  0  0  0  0  0  0  0  0
   -0.2217    1.5208    0.0011 H   0  0  0  0  0  0  0  0  0  0  0  0
    0.2217   -1.5208   -0.0011 H   0  0  0  0  0  0  0  0  0  0  0  0
    2.1096    0.9566    0.0010 H   0  0  0  0  0  0  0  0  0  0  0  0
    2.5496   -2.0818   -0.0012 H   0  0  0  0  0  0  0  0  0  0  0  0
    4.9678   -2.6595   -0.0005 H   0  0  0  0  0  0  0  0  0  0  0  0
    7.3201   -1.9927   -0.0008 H   0  0  0  0  0  0  0  0  0  0  0  0
    6.1524    2.1393    0.0012 H   0  0  0  0  0  0  0  0  0  0  0  0
    3.7991    1.4763   -0.0046 H   0  0  0  0  0  0  0  0  0  0  0  0
   -3.7991   -1.4763   -0.0012 H   0  0  0  0  0  0  0  0  0  0  0  0
   -6.1524   -2.1393    0.0036 H   0  0  0  0  0  0  0  0  0  0  0  0
  1  2  3  0  0  0  0
  2  3  1  0  0  0  0
  3  4  1  0  0  0  0
  4  5  2  0  0  0  0
  5  6  1  0  0  0  0
  6  7  1  0  0  0  0
  7  8  2  0  0  0  0
  8  9  1  0  0  0  0
  9 10  2  0  0  0  0
 10 11  1  0  0  0  0
 11 12  2  0  0  0  0
 12 13  1  0  0  0  0
 13 14  1  0  0  0  0
 14 15  2  0  0  0  0
 15 16  1  0  0  0  0
 16 17  1  0  0  0  0
 17 18  3  0  0  0  0
 16 19  2  0  0  0  0
 19 20  1  0  0  0  0
 13 20  2  0  0  0  0
  6 21  2  0  0  0  0
 21 22  1  0  0  0  0
  3 22  2  0  0  0  0
  4 23  1  0  0  0  0
  5 24  1  0  0  0  0
  7 25  1  0  0  0  0
  8 26  1  0  0  0  0
  9 27  1  0  0  0  0
 10 28  1  0  0  0  0
 11 29  1  0  0  0  0
 12 30  1  0  0  0  0
 14 31  1  0  0  0  0
 15 32  1  0  0  0  0
 19 33  1  0  0  0  0
 20 34  1  0  0  0  0
 21 35  1  0  0  0  0
 22 36  1  0  0  0  0
M  END
$$$$
