data_functionalizedCrystal
_audit_creation_method	'MofGen! by Chris Wilmer'
_symmetry_space_group_name_H-M	'P1'
_symmetry_Int_Tables_number	1
_symmetry_cell_setting	triclinic
loop_
_symmetry_equiv_pos_as_xyz
  x,y,z
_cell_length_a	18.215407
_cell_length_b	18.215405
_cell_length_c	18.215399
_cell_angle_alpha	89.969449
_cell_angle_beta	89.980167
_cell_angle_gamma	90.025333
loop_
_atom_site_label
_atom_site_type_symbol
_atom_site_fract_x
_atom_site_fract_y
_atom_site_fract_z
Zn1	Zn	1.125072	-0.292983	-0.416103
Zn2	Zn	1.375072	-0.042983	-0.166103
Zn3	Zn	1.625072	0.207017	0.083897
Zn4	Zn	1.875072	0.457017	0.333897
Zn5	Zn	1.124980	-0.416054	-0.293031
Zn6	Zn	1.374980	-0.166054	-0.043031
Zn7	Zn	1.624980	0.083946	0.206969
Zn8	Zn	1.874980	0.333946	0.456969
Zn9	Zn	1.002005	-0.293007	-0.293050
Zn10	Zn	1.252005	-0.043007	-0.043050
Zn11	Zn	1.502005	0.206993	0.206950
Zn12	Zn	1.752005	0.456993	0.456950
Zn13	Zn	1.001970	-0.416013	-0.416056
Zn14	Zn	1.251970	-0.166013	-0.166056
Zn15	Zn	1.501970	0.083987	0.083944
Zn16	Zn	1.751970	0.333987	0.333944
O17	O	1.063507	-0.354514	-0.354560
O18	O	1.313507	-0.104514	-0.104560
O19	O	1.563507	0.145486	0.145440
O20	O	1.813507	0.395486	0.395440
O21	O	1.228044	-0.309316	-0.399788
O22	O	1.478044	-0.059316	-0.149788
O23	O	1.728044	0.190684	0.100212
O24	O	1.978044	0.440684	0.350212
O25	O	1.108643	-0.399759	-0.190049
O26	O	1.358643	-0.149759	0.059951
O27	O	1.608643	0.100241	0.309951
O28	O	1.858643	0.350241	0.559951
O29	O	1.018382	-0.190020	-0.309401
O30	O	1.268382	0.059980	-0.059401
O31	O	1.518382	0.309980	0.190599
O32	O	1.768382	0.559980	0.440599
O33	O	1.227977	-0.399736	-0.309368
O34	O	1.477977	-0.149736	-0.059368
O35	O	1.727977	0.100264	0.190632
O36	O	1.977977	0.350264	0.440632
O37	O	1.108799	-0.190002	-0.399807
O38	O	1.358799	0.059998	-0.149807
O39	O	1.608799	0.309998	0.100193
O40	O	1.858799	0.559998	0.350193
O41	O	1.018293	-0.309357	-0.190063
O42	O	1.268293	-0.059357	0.059937
O43	O	1.518293	0.190643	0.309937
O44	O	1.768293	0.440643	0.559937
O45	O	0.899016	-0.309317	-0.309355
O46	O	1.149016	-0.059317	-0.059355
O47	O	1.399016	0.190683	0.190645
O48	O	1.649016	0.440683	0.440645
O49	O	1.018324	-0.399666	-0.519046
O50	O	1.268324	-0.149666	-0.269046
O51	O	1.518324	0.100334	-0.019046
O52	O	1.768324	0.350334	0.230954
O53	O	0.898991	-0.399689	-0.399727
O54	O	1.148991	-0.149689	-0.149727
O55	O	1.398991	0.100311	0.100273
O56	O	1.648991	0.350311	0.350273
O57	O	1.108766	-0.309276	-0.519081
O58	O	1.358766	-0.059276	-0.269081
O59	O	1.608766	0.190724	-0.019081
O60	O	1.858766	0.440724	0.230919
O61	O	1.108610	-0.519033	-0.309322
O62	O	1.358610	-0.269033	-0.059322
O63	O	1.608610	-0.019033	0.190678
O64	O	1.858610	0.230967	0.440678
O65	O	1.018235	-0.519003	-0.399708
O66	O	1.268235	-0.269003	-0.149708
O67	O	1.518235	-0.019003	0.100292
O68	O	1.768235	0.230997	0.350292
C69	C	0.872301	-0.354502	-0.354539
C70	C	1.122301	-0.104502	-0.104539
C71	C	1.372301	0.145498	0.145461
C72	C	1.622301	0.395498	0.395461
C73	C	0.790502	-0.354514	-0.354547
C74	C	1.040502	-0.104514	-0.104547
C75	C	1.290502	0.145486	0.145453
C76	C	1.540502	0.395486	0.395453
C77	C	0.602314	-0.401645	-0.401544
C78	C	0.852314	-0.151645	-0.151544
C79	C	1.102314	0.098355	0.098456
C80	C	1.352314	0.348355	0.348456
C81	C	0.525455	-0.401647	-0.401554
C82	C	0.775455	-0.151647	-0.151554
C83	C	1.025455	0.098353	0.098446
C84	C	1.275455	0.348353	0.348446
C85	C	0.525452	-0.307397	-0.307591
C86	C	0.775452	-0.057397	-0.057591
C87	C	1.025452	0.192603	0.192409
C88	C	1.275452	0.442603	0.442409
C89	C	0.602309	-0.307392	-0.307586
C90	C	0.852309	-0.057392	-0.057586
C91	C	1.102309	0.192608	0.192414
C92	C	1.352309	0.442608	0.442414
C93	C	0.640738	-0.354520	-0.354562
C94	C	0.890738	-0.104520	-0.104562
C95	C	1.140738	0.145480	0.145438
C96	C	1.390738	0.395480	0.395438
C97	C	0.487022	-0.354528	-0.354576
C98	C	0.737022	-0.104528	-0.104576
C99	C	0.987022	0.145472	0.145424
C100	C	1.237022	0.395472	0.395424
C101	C	0.403688	-0.354530	-0.354585
C102	C	0.653688	-0.104530	-0.104585
C103	C	0.903688	0.145470	0.145415
C104	C	1.153688	0.395470	0.395415
C105	C	0.724077	-0.354517	-0.354553
C106	C	0.974077	-0.104517	-0.104553
C107	C	1.224077	0.145483	0.145447
C108	C	1.474077	0.395483	0.395447
C109	C	1.063429	-0.545721	-0.354524
C110	C	1.313429	-0.295721	-0.104524
C111	C	1.563429	-0.045721	0.145476
C112	C	1.813429	0.204279	0.395476
C113	C	1.063463	-0.627520	-0.354534
C114	C	1.313463	-0.377520	-0.104534
C115	C	1.563463	-0.127520	0.145466
C116	C	1.813463	0.122480	0.395466
C117	C	1.110632	-0.815705	-0.307556
C118	C	1.360632	-0.565705	-0.057556
C119	C	1.610632	-0.315705	0.192444
C120	C	1.860632	-0.065705	0.442444
C121	C	1.110665	-0.892563	-0.307574
C122	C	1.360665	-0.642563	-0.057574
C123	C	1.610665	-0.392563	0.192426
C124	C	1.860665	-0.142563	0.442426
C125	C	1.016476	-0.892572	-0.401616
C126	C	1.266476	-0.642572	-0.151616
C127	C	1.516476	-0.392572	0.098384
C128	C	1.766476	-0.142572	0.348384
C129	C	1.016447	-0.815715	-0.401601
C130	C	1.266447	-0.565715	-0.151601
C131	C	1.516447	-0.315715	0.098399
C132	C	1.766447	-0.065715	0.348399
C133	C	1.063524	-0.777283	-0.354567
C134	C	1.313524	-0.527283	-0.104567
C135	C	1.563524	-0.277283	0.145433
C136	C	1.813524	-0.027283	0.395433
C137	C	1.063586	-0.930999	-0.354600
C138	C	1.313586	-0.680999	-0.104600
C139	C	1.563586	-0.430999	0.145400
C140	C	1.813586	-0.180999	0.395400
C141	C	1.063621	-1.014333	-0.354619
C142	C	1.313621	-0.764333	-0.104619
C143	C	1.563621	-0.514333	0.145381
C144	C	1.813621	-0.264333	0.395381
C145	C	1.063490	-0.693944	-0.354548
C146	C	1.313490	-0.443944	-0.104548
C147	C	1.563490	-0.193944	0.145452
C148	C	1.813490	0.056056	0.395452
C149	C	1.255460	-0.354528	-0.354581
C150	C	1.505460	-0.104528	-0.104581
C151	C	1.755460	0.145472	0.145419
C152	C	2.005460	0.395472	0.395419
C153	C	1.337259	-0.354533	-0.354591
C154	C	1.587259	-0.104533	-0.104591
C155	C	1.837259	0.145467	0.145409
C156	C	2.087259	0.395467	0.395409
C157	C	1.063552	-0.354464	-0.546513
C158	C	1.313552	-0.104464	-0.296513
C159	C	1.563552	0.145536	-0.046513
C160	C	1.813552	0.395536	0.203487
C161	C	1.063571	-0.354442	-0.628312
C162	C	1.313571	-0.104442	-0.378312
C163	C	1.563571	0.145558	-0.128312
C164	C	1.813571	0.395558	0.121688
C165	C	1.063605	-0.162561	-0.354611
C166	C	1.313605	0.087439	-0.104611
C167	C	1.563605	0.337439	0.145389
C168	C	1.813605	0.587439	0.395389
C169	C	1.063647	-0.080763	-0.354633
C170	C	1.313647	0.169237	-0.104633
C171	C	1.563647	0.419237	0.145367
C172	C	1.813647	0.669237	0.395367
C173	C	1.110681	-0.307332	-0.816525
C174	C	1.360681	-0.057332	-0.566525
C175	C	1.610681	0.192668	-0.316525
C176	C	1.860681	0.442668	-0.066525
C177	C	1.110690	-0.307311	-0.893384
C178	C	1.360690	-0.057311	-0.643384
C179	C	1.610690	0.192689	-0.393384
C180	C	1.860690	0.442689	-0.143384
C181	C	1.016513	-0.401438	-0.893336
C182	C	1.266513	-0.151438	-0.643336
C183	C	1.516513	0.098562	-0.393336
C184	C	1.766513	0.348562	-0.143336
C185	C	1.016501	-0.401455	-0.816479
C186	C	1.266501	-0.151455	-0.566479
C187	C	1.516501	0.098545	-0.316479
C188	C	1.766501	0.348545	-0.066479
C189	C	1.063589	-0.354403	-0.778075
C190	C	1.313589	-0.104403	-0.528075
C191	C	1.563589	0.145597	-0.278075
C192	C	1.813589	0.395597	-0.028075
C193	C	1.063610	-0.354365	-0.931791
C194	C	1.313610	-0.104365	-0.681791
C195	C	1.563610	0.145635	-0.431791
C196	C	1.813610	0.395635	-0.181791
C197	C	1.063619	-0.354342	-1.015125
C198	C	1.313619	-0.104342	-0.765125
C199	C	1.563619	0.145658	-0.515125
C200	C	1.813619	0.395658	-0.265125
C201	C	1.063579	-0.354425	-0.694736
C202	C	1.313579	-0.104425	-0.444736
C203	C	1.563579	0.145575	-0.194736
C204	C	1.813579	0.395575	0.055264
C205	C	1.063504	-0.354512	-0.163353
C206	C	1.313504	-0.104512	0.086647
C207	C	1.563504	0.145488	0.336647
C208	C	1.813504	0.395488	0.586647
C209	C	1.063628	-0.354326	-0.081555
C210	C	1.313628	-0.104326	0.168445
C211	C	1.563628	0.145674	0.418445
C212	C	1.813628	0.395674	0.668445
H213	H	0.633601	-0.440018	-0.439797
H214	H	0.883601	-0.190018	-0.189797
H215	H	1.133601	0.059982	0.060203
H216	H	1.383601	0.309982	0.310203
Br217	Br	0.473293	-0.243441	-0.243841
Br218	Br	0.723293	0.006559	0.006159
Br219	Br	0.973293	0.256559	0.256159
Br220	Br	1.223293	0.506559	0.506159
H221	H	0.494174	-0.440020	-0.439813
H222	H	0.744174	-0.190020	-0.189813
H223	H	0.994174	0.059980	0.060187
H224	H	1.244174	0.309980	0.310187
H225	H	1.149035	-0.268979	-0.924686
H226	H	1.399035	-0.018979	-0.674686
H227	H	1.649035	0.231021	-0.424686
H228	H	1.899035	0.481021	-0.174686
H229	H	0.978177	-0.439748	-0.924614
H230	H	1.228177	-0.189748	-0.674614
H231	H	1.478177	0.060252	-0.424614
H232	H	1.728177	0.310252	-0.174614
H233	H	0.978146	-0.923873	-0.439908
H234	H	1.228146	-0.673873	-0.189908
H235	H	1.478146	-0.423873	0.060092
H236	H	1.728146	-0.173873	0.310092
Br237	Br	0.654461	-0.243424	-0.243826
Br238	Br	0.904461	0.006576	0.006174
Br239	Br	1.154461	0.256576	0.256174
Br240	Br	1.404461	0.506576	0.506174
Br241	Br	0.952517	-0.763566	-0.465413
Br242	Br	1.202517	-0.513566	-0.215413
Br243	Br	1.452517	-0.263566	0.034587
Br244	Br	1.702517	-0.013566	0.284587
H245	H	0.978148	-0.439786	-0.785173
H246	H	1.228148	-0.189786	-0.535173
H247	H	1.478148	0.060214	-0.285173
H248	H	1.728148	0.310214	-0.035173
Br249	Br	1.174604	-0.944705	-0.243775
Br250	Br	1.424604	-0.694705	0.006225
Br251	Br	1.674604	-0.444705	0.256225
Br252	Br	1.924604	-0.194705	0.506225
Br253	Br	1.174522	-0.763549	-0.243726
Br254	Br	1.424522	-0.513549	0.006274
Br255	Br	1.674522	-0.263549	0.256274
Br256	Br	1.924522	-0.013549	0.506274
Br257	Br	1.174585	-0.243475	-0.764407
Br258	Br	1.424585	0.006525	-0.514407
Br259	Br	1.674585	0.256525	-0.264407
Br260	Br	1.924585	0.506525	-0.014407
