data_functionalizedCrystal
_audit_creation_method	'MofGen! by Chris Wilmer'
_symmetry_space_group_name_H-M	'P1'
_symmetry_Int_Tables_number	1
_symmetry_cell_setting	triclinic
loop_
_symmetry_equiv_pos_as_xyz
  x,y,z
_cell_length_a	10.654549
_cell_length_b	19.288857
_cell_length_c	9.730223
_cell_angle_alpha	89.993455
_cell_angle_beta	89.997731
_cell_angle_gamma	83.808943
loop_
_atom_site_label
_atom_site_type_symbol
_atom_site_fract_x
_atom_site_fract_y
_atom_site_fract_z
O1	O	1.665746	0.097554	-0.114266
O2	O	1.300068	0.106848	-0.114276
O3	O	1.493479	0.001139	-0.114254
O4	O	1.472336	0.203262	-0.114288
O5	O	1.493466	0.001137	0.114326
O6	O	1.300056	0.106845	0.114304
O7	O	1.665734	0.097551	0.114314
Zn8	Zn	1.482893	0.102198	0.150601
Zn9	Zn	1.482909	0.102201	-0.150563
O10	O	1.472324	0.203260	0.114292
C11	C	1.253279	0.106164	0.000013
C12	C	1.113879	0.104123	0.000010
C13	C	1.492794	-0.024743	0.000037
C14	C	1.490756	-0.101860	0.000041
C15	C	0.902070	0.164439	0.000005
C16	C	1.033050	0.166362	-0.000003
C17	C	1.063724	0.039955	0.000017
C18	C	0.932747	0.038032	0.000016
C19	C	1.489812	-0.138075	-0.124558
C20	C	1.487880	-0.210534	-0.124568
C21	C	1.486917	-0.246776	0.000028
C22	C	1.487855	-0.210552	0.124643
C23	C	1.489774	-0.138094	0.124650
C24	C	1.557425	-0.366547	0.095478
C25	C	1.555514	-0.439005	0.095466
C26	C	1.480991	-0.470261	0.000012
C27	C	1.408397	-0.429052	-0.095453
C28	C	1.410317	-0.356594	-0.095446
C29	C	1.484835	-0.325345	0.000034
C30	C	1.477950	-0.585044	-0.124607
C31	C	1.476010	-0.657504	-0.124612
C32	C	1.475998	-0.657521	0.124603
C33	C	1.477925	-0.585062	0.124605
C34	C	1.478907	-0.548828	-0.000004
C35	C	1.712523	0.098235	0.000023
C36	C	1.851923	0.100276	0.000017
C37	C	1.473008	0.229142	-0.000002
C38	C	1.475046	0.306259	-0.000015
N39	N	1.482891	0.102195	0.356138
N40	N	1.482921	0.102199	-0.356099
C41	C	1.568562	0.055407	0.428073
C42	C	1.568574	0.055407	0.571956
C43	C	1.397241	0.148989	0.571955
C44	C	1.397224	0.148985	0.428075
H45	H	1.073873	0.218610	-0.000014
C46	C	1.661329	0.004534	0.349829
C47	C	1.594630	-0.038316	0.267273
C48	C	1.680031	-0.085200	0.195183
H49	H	1.712356	-0.023397	0.413156
H50	H	1.713469	0.029734	0.293577
H51	H	1.542513	-0.063514	0.323521
H52	H	1.543608	-0.010404	0.203922
H53	H	1.732170	-0.060000	0.138931
H54	H	1.731053	-0.113126	0.258520
H55	H	1.634788	-0.114275	0.139151
C56	C	1.151269	-0.027697	-0.000045
C57	C	1.079313	-0.084300	-0.000075
C58	C	1.159913	-0.146634	-0.000150
H59	H	1.203027	-0.029676	0.079645
H60	H	1.202986	-0.029611	-0.079787
H61	H	1.027618	-0.082388	0.079659
H62	H	1.027558	-0.082344	-0.079759
H63	H	1.211630	-0.148547	-0.079892
H64	H	1.211667	-0.148605	0.079542
H65	H	1.111103	-0.185046	-0.000183
H66	H	1.478704	-0.555576	0.226067
C67	C	0.878222	-0.031615	-0.000256
C68	C	0.803959	-0.036414	-0.117877
C69	C	0.753725	-0.100563	-0.118191
H70	H	0.827673	-0.035063	0.079358
H71	H	0.945081	-0.068430	-0.000323
H72	H	0.737110	0.000391	-0.117798
H73	H	0.854480	-0.032978	-0.197511
H74	H	0.820583	-0.137378	-0.118257
H75	H	0.703181	-0.104005	-0.038571
H76	H	0.703341	-0.103830	-0.198001
C77	C	1.304407	0.199825	0.349789
C78	C	1.371042	0.242672	0.267132
C79	C	1.285585	0.289504	0.194983
H80	H	1.253361	0.227762	0.413080
H81	H	1.252292	0.174586	0.293601
H82	H	1.423135	0.267909	0.323315
H83	H	1.422084	0.214754	0.203815
H84	H	1.233470	0.264265	0.138795
H85	H	1.234543	0.317437	0.258284
H86	H	1.330784	0.318578	0.138882
H87	H	1.490609	-0.108578	-0.226024
C88	C	1.486871	-0.249740	-0.259998
C89	C	1.488144	-0.202500	-0.369121
C90	C	1.487207	-0.238588	-0.493897
H91	H	1.412912	-0.273053	-0.265343
H92	H	1.559352	-0.282948	-0.265280
H93	H	1.415670	-0.169305	-0.363842
H94	H	1.562097	-0.179185	-0.363821
H95	H	1.559688	-0.271796	-0.499179
H96	H	1.413248	-0.261900	-0.499228
H97	H	1.488083	-0.206542	-0.567952
C98	C	1.661734	0.004579	0.649809
C99	C	1.736768	-0.036384	0.556008
C100	C	1.822613	-0.083211	0.627675
H101	H	1.616888	-0.024634	0.705958
H102	H	1.713933	0.029819	0.705891
H103	H	1.684575	-0.061623	0.499950
H104	H	1.781641	-0.007190	0.499856
H105	H	1.874813	-0.057971	0.683757
H106	H	1.777757	-0.112419	0.683821
H107	H	1.873542	-0.111006	0.564042
C108	C	1.327434	-0.462848	-0.199241
C109	C	1.264293	-0.411253	-0.282853
C110	C	1.189713	-0.442364	-0.378484
H111	H	1.267436	-0.487113	-0.152130
H112	H	1.379683	-0.494680	-0.254526
H113	H	1.212048	-0.379434	-0.227575
H114	H	1.324260	-0.386985	-0.329995
H115	H	1.241963	-0.474196	-0.433769
H116	H	1.129723	-0.466628	-0.331361
H117	H	1.146873	-0.407363	-0.435234
H118	H	1.351206	-0.323044	-0.173174
C119	C	1.478751	-0.545708	-0.259921
C120	C	1.370258	-0.556002	-0.335100
C121	C	1.370948	-0.519767	-0.459744
H122	H	1.551570	-0.562488	-0.311281
H123	H	1.479973	-0.497359	-0.242110
H124	H	1.369048	-0.604341	-0.352914
H125	H	1.297422	-0.539219	-0.283781
H126	H	1.372170	-0.471417	-0.441933
H127	H	1.443771	-0.536550	-0.511092
H128	H	1.297332	-0.526741	-0.510762
C129	C	0.814527	0.232092	-0.000081
C130	C	0.886485	0.288694	-0.000133
C131	C	0.805887	0.351028	-0.000237
H132	H	0.762761	0.234071	0.079606
H133	H	0.762818	0.234006	-0.079826
H134	H	0.938172	0.286781	0.079604
H135	H	0.938248	0.286737	-0.079814
H136	H	0.754179	0.352942	-0.079982
H137	H	0.754125	0.353000	0.079452
H138	H	0.854699	0.389440	-0.000285
H139	H	1.475235	-0.686988	-0.226080
C140	C	1.634366	-0.483619	0.199263
C141	C	1.699999	-0.440738	0.282896
C142	C	1.772638	-0.481809	0.378544
H143	H	1.692872	-0.515885	0.152166
H144	H	1.580602	-0.508295	0.254532
H145	H	1.753759	-0.416074	0.227634
H146	H	1.641525	-0.408472	0.330025
H147	H	1.718874	-0.506485	0.433813
H148	H	1.831137	-0.514073	0.331435
H149	H	1.817170	-0.452720	0.435308
C150	C	1.638441	-0.332519	0.198878
C151	C	1.726545	-0.296783	0.128824
C152	C	1.801183	-0.265413	0.224014
H153	H	1.681543	-0.367353	0.255778
H154	H	1.586198	-0.300632	0.254059
H155	H	1.778781	-0.328666	0.073667
H156	H	1.683477	-0.261937	0.071930
H157	H	1.748940	-0.233527	0.279195
H158	H	1.844277	-0.300252	0.280909
H159	H	1.860962	-0.241158	0.176497
C160	C	1.304184	0.199681	0.650242
C161	C	1.227567	0.162287	0.732903
C162	C	1.141840	0.208962	0.805052
H163	H	1.253033	0.227565	0.586951
H164	H	1.349163	0.228818	0.706428
H165	H	1.182590	0.133162	0.676722
H166	H	1.278683	0.134405	0.796220
H167	H	1.186820	0.238100	0.861238
H168	H	1.090698	0.236844	0.741751
H169	H	1.089853	0.183598	0.861155
H170	H	1.475204	-0.687028	0.226052
H171	H	1.487067	-0.240065	0.226090
H172	H	1.490538	-0.108607	0.226117
